LAMMPS (22 Oct 2020)
# demo for atom style template simulating a cyclohexane methane mixture
# part 1: creating system with create_atoms

units real
boundary p p p
molecule cychex cyclohexane.mol
Read molecule template cychex:
  1 molecules
  6 atoms with max type 1
  6 bonds with max type 1
  6 angles with max type 1
  6 dihedrals with max type 1
  0 impropers with max type 0
atom_style template cychex

pair_style lj/cut 12.0
pair_modify mix geometric tail yes
bond_style harmonic
angle_style harmonic
dihedral_style harmonic

lattice sc 6.0
Lattice spacing in x,y,z = 6.0000000 6.0000000 6.0000000
variable boxlen index 4.0
region box block -4.0 4.0 -4.0 4.0 -4.0 4.0 units lattice
create_box 2 box bond/types 1 angle/types 1 dihedral/types 1
Created orthogonal box = (-24.000000 -24.000000 -24.000000) to (24.000000 24.000000 24.000000)

create_atoms 0 box mol cychex 734594
Created 3072 atoms
create_atoms 2 random 800 495437 box
Created 800 atoms

mass 1 14.027
mass 2 16.043

pair_coeff 1 1  0.1180  3.905
pair_coeff 2 2  0.2940  3.730

bond_coeff      1  260.00 1.5260
angle_coeff     1  63.0   112.40
dihedral_coeff  1  2.0 1 3

thermo 100
minimize 0.001 0.001 500 1000
  update every 1 steps, delay 0 steps, check yes
Step Temp E_pair E_mol TotEng Press
0            0 4.3897851e+13    341.92144 4.3897851e+13 1.0886888e+14
Loop time of 3.4619 on 1 procs for 190 steps with 3872 atoms

Minimization stats:
  Stopping criterion = energy tolerance
  Energy initial, next-to-last, final =
  Force two-norm initial, final = 1.1080994e+15 72.746805
  Force max component initial, final = 4.6607099e+14 17.394645
  Final line search alpha, max atom move = 0.0041634525 0.072421779
  Iterations, force evaluations = 190 297

reset_timestep 0

velocity all create 100.0 6234235
fix 1 all nvt temp 100.0 300.0 1.0
# dump 1 all custom 100 cychex-methane.lammpstrj id xu yu zu
run 2500
Step Temp E_pair E_mol TotEng Press
0          100   -6191.8175    457.61209   -4580.3339    4842.3161
Averages over the last 13 of 26 rows, steps 1300 to 2500:
Temp E_pair E_mol TotEng Press
251.406 -5197.29 1400.62 -895.754 8830.01
Loop time of 18.7845 on 1 procs for 2500 steps with 3872 atoms

write_data template-mix.data
System init for write_data ...
