LAMMPS (22 Oct 2020)
# demo for atom style template simulating a cyclohexane methane mixture
# part 1: creating system with create_atoms

units real
boundary p p p
molecule cychex cyclohexane.mol
Read molecule template cychex:
  1 molecules
  6 atoms with max type 1
  6 bonds with max type 1
  6 angles with max type 1
  6 dihedrals with max type 1
  0 impropers with max type 0
atom_style template cychex

pair_style lj/cut 12.0
pair_modify mix geometric tail yes
bond_style harmonic
angle_style harmonic
dihedral_style harmonic

lattice sc 6.0
Lattice spacing in x,y,z = 6.0000000 6.0000000 6.0000000
variable boxlen index 4.0
region box block -4.0 4.0 -4.0 4.0 -4.0 4.0 units lattice
create_box 2 box bond/types 1 angle/types 1 dihedral/types 1
Created orthogonal box = (-24.000000 -24.000000 -24.000000) to (24.000000 24.000000 24.000000)

create_atoms 0 box mol cychex 734594
Created 3072 atoms
create_atoms 2 random 800 495437 box
Created 800 atoms

mass 1 14.027
mass 2 16.043

pair_coeff 1 1  0.1180  3.905
pair_coeff 2 2  0.2940  3.730

bond_coeff      1  260.00 1.5260
angle_coeff     1  63.0   112.40
dihedral_coeff  1  2.0 1 3

thermo 100
minimize 0.001 0.001 500 1000
  update every 1 steps, delay 0 steps, check yes
Step Temp E_pair E_mol TotEng Press
0            0 7.5430044e+16    341.92144 7.5430044e+16 1.8707026e+17
Loop time of 1.08919 on 4 procs for 204 steps with 3872 atoms

Minimization stats:
  Stopping criterion = energy tolerance
  Energy initial, next-to-last, final =
  Force two-norm initial, final = 8.7430661e+18 74.636845
  Force max component initial, final = 4.1468626e+18 8.6800755
  Final line search alpha, max atom move = 0.0032186736 0.02793833
  Iterations, force evaluations = 204 328

reset_timestep 0

velocity all create 100.0 6234235
fix 1 all nvt temp 100.0 300.0 1.0
# dump 1 all custom 100 cychex-methane.lammpstrj id xu yu zu
run 2500
Step Temp E_pair E_mol TotEng Press
0          100   -6137.0238    483.14639   -4500.0059    5429.3513
Averages over the last 13 of 26 rows, steps 1300 to 2500:
Temp E_pair E_mol TotEng Press
251.767 -5146.52 1427.16 -814.286 9036.21
Loop time of 5.70106 on 4 procs for 2500 steps with 3872 atoms

write_data template-mix.data
System init for write_data ...
