LAMMPS (22 Oct 2020)
# demo using atom style hybrid template charge to simulate a h2o/co2 mixture

units           real
molecule        twomols h2o.mol co2.mol offset 2 1 1 0 0
Read molecule template twomols:
  1 molecules
  3 atoms with max type 2
  2 bonds with max type 1
  1 angles with max type 1
  0 dihedrals with max type 0
  0 impropers with max type 0
Read molecule template twomols:
  1 molecules
  3 atoms with max type 4
  2 bonds with max type 2
  1 angles with max type 2
  0 dihedrals with max type 0
  0 impropers with max type 0
atom_style      hybrid template twomols charge
boundary        p p p
pair_style      lj/cut/coul/long  12
pair_modify     mix arithmetic tail yes
kspace_style    pppm 0.0001
pair_style      lj/cut/coul/long  12
bond_style      harmonic
angle_style     harmonic

read_data h2o-co2.data
Reading data file ...
  orthogonal box = (-10.000000 -10.000000 -10.000000) to (10.000000 10.000000 10.000000)
  reading atoms ...
  384 atoms
  256 template bonds
  128 template angles

group           h2o type 1 2
192 atoms in group h2o
group           co2 type 3 4
192 atoms in group co2
neighbor        1.0 bin
neigh_modify    every 1 delay 1 check yes
timestep        1.0

velocity all create 300.0 34672
thermo 100

fix             1 all nve
fix             2 all shake 1.0e-4 1000 500 b 1 a 1 mol twomols
       0 = # of size 2 clusters
       0 = # of size 3 clusters
       0 = # of size 4 clusters
      64 = # of frozen angles
  find clusters CPU = 0.000 seconds
#dump            1 all custom 100 h2o-co2.lammpstrj id mol xu yu zu

run 2500
PPPM initialization ...
  G vector (1/distance) = 0.21452218
  grid = 8 8 8
  stencil order = 5
  estimated absolute RMS force accuracy = 0.0237525
  estimated relative force accuracy = 7.1529949e-05
  3d grid and FFT values/proc = 2197 512
  update every 1 steps, delay 1 steps, check yes
SHAKE stats (type/ave/delta/count) on step 0
Step Temp E_pair E_mol TotEng Press
0    360.18809   -173.24472 3.5527137e-13    169.25036    2429.6019
SHAKE stats (type/ave/delta/count) on step 1000
SHAKE stats (type/ave/delta/count) on step 1500
SHAKE stats (type/ave/delta/count) on step 2000
SHAKE stats (type/ave/delta/count) on step 2500
Loop time of 6.4485 on 1 procs for 2500 steps with 384 atoms
