LAMMPS (22 Oct 2020)
# demo for atom style template simulating a cyclohexane methane mixture
# part 2: continuing from data file

units real
boundary p p p
molecule cychex cyclohexane.mol
Read molecule template cychex:
  1 molecules
  6 atoms with max type 1
  6 bonds with max type 1
  6 angles with max type 1
  6 dihedrals with max type 1
  0 impropers with max type 0
atom_style molecular

pair_style lj/cut 12.0
pair_modify mix geometric tail yes
bond_style harmonic
angle_style harmonic
dihedral_style harmonic

read_data molecular-mix.data
Reading data file ...
  orthogonal box = (-24.000000 -24.000000 -24.000000) to (24.000000 24.000000 24.000000)
  reading atoms ...
  3872 atoms
  reading velocities ...
  3872 velocities
  scanning bonds ...
  scanning angles ...
  scanning dihedrals ...
  reading bonds ...
  3072 bonds
  reading angles ...
  3072 angles
  reading dihedrals ...
  3072 dihedrals
Finding 1-2 1-3 1-4 neighbors ...
     2 = max # of 1-2 neighbors
     2 = max # of 1-3 neighbors
     4 = max # of 1-4 neighbors
     5 = max # of special neighbors

thermo 100

fix 1 all nvt temp 300.0 300.0 1.0
# dump 1 all custom 100 custom template-mix.lammpstrj id xu yu zu
run 2000
  update every 1 steps, delay 10 steps, check yes
Step Temp E_pair E_mol TotEng Press
0    297.79426   -4928.7403    1686.5107    193.93377    11481.089
Averages over the last 11 of 21 rows, steps 1000 to 2000:
Temp E_pair E_mol TotEng Press
299.452 -5000.64 1726.25 180.912 9747.26
Loop time of 15.6807 on 1 procs for 2000 steps with 3872 atoms
