LAMMPS (09 Jan 2020)
units		metal
dimension	3
boundary	p f p

atom_style	atomic
neighbor	2.0 bin

# create geometry

lattice		sc 10
Lattice spacing in x,y,z = 10 10 10
region		box block 0 10 0 10 0 10
create_box	1 box
Created orthogonal box = (0 0 0) to (100 100 100)
create_atoms	1 box
Created 1000 atoms

mass		1 39.95

# LJ potentials

pair_style	lj/cut 8.5
pair_coeff	* * 0.01 3.4 8.5

# initial velocities

velocity	all create 300 482748
fix		1 all nve

# Maxwellian reflection
# upper wall velocity = 0.1, lower wall fixed,
# accommodation coefficient = 0.2 for both walls

fix ywalls all wall/reflect/stochastic maxwell 29839      ylo EDGE 300 0 0 0 0.2 yhi EDGE 300 0 0 0.1 0.2

# run

thermo		1000
run		10000
  update every 1 steps, delay 10 steps, check yes
Step Temp E_pair E_mol TotEng Press
0          300            0            0    38.739265    41.378094
Averages over the last 6 of 11 rows, steps 5000 to 10000:
Temp E_pair E_mol TotEng Press
317.232 -2.03144 0 38.933 44.4803
Loop time of 0.372642 on 4 procs for 10000 steps with 1000 atoms
