LAMMPS (29 Oct 2020)
# created by fftool

print "Methane in TIP4P water"
Methane in TIP4P water

units real
boundary p p p

atom_style full
bond_style harmonic
angle_style harmonic
special_bonds lj/coul 0.0 0.0 0.5

read_data data.lmp
Reading data file ...
  orthogonal box = (-13.443762 -13.443762 -13.443762) to (13.443762 13.443762 13.443762)
  reading atoms ...
  1085 atoms
  scanning bonds ...
  scanning angles ...
  reading bonds ...
  724 bonds
  reading angles ...
  366 angles
Finding 1-2 1-3 1-4 neighbors ...
     4 = max # of 1-2 neighbors
     3 = max # of 1-3 neighbors
     3 = max # of 1-4 neighbors
     4 = max # of special neighbors

pair_style hybrid   lj/cut/coul/long 10.0 10.0   lj/cut/tip4p/long/soft 3 4 2 2 0.125 1 0.5 10.0 10.0 10.0
pair_modify tail no
kspace_style pppm/tip4p 1.0e-4

pair_coeff    1    1  lj/cut/coul/long    0.0660   3.5000  # C4H C4H
pair_coeff    1    2  lj/cut/coul/long    0.0445   2.9580  # C4H H
pair_coeff    2    2  lj/cut/coul/long    0.0300   2.5000  # H H
pair_coeff    3    3  lj/cut/tip4p/long/soft   0.1628   3.1644  1.0  # Ow Ow
pair_coeff    3    4  lj/cut/tip4p/long/soft   0.0000   1.0000  1.0  # Ow Hw
pair_coeff    4    4  lj/cut/tip4p/long/soft   0.0000   1.0000  1.0  # Hw Hw

pair_coeff    1    3  lj/cut/tip4p/long/soft   0.1036   3.3279  0.0  # C4H Ow
pair_coeff    1    4  lj/cut/tip4p/long/soft   0.0000   1.0000  0.0  # C4H Hw
pair_coeff    2    3  lj/cut/tip4p/long/soft   0.0699   2.8126  0.0  # H Ow
pair_coeff    2    4  lj/cut/tip4p/long/soft   0.0000   1.0000  0.0  # H Hw

variable TK equal 300.0
variable PBAR equal 1.0

fix SHAKE all shake 0.0001 20 0 b 2 a 2
       0 = # of size 2 clusters
       0 = # of size 3 clusters
       0 = # of size 4 clusters
     360 = # of frozen angles
  find clusters CPU = 0.001 seconds

neighbor 2.0 bin

timestep 1.0

velocity all create 300 12345

thermo_style custom step etotal ke pe evdwl ecoul elong temp press density
thermo 5000

fix TPSTAT all npt temp 300 300 100 iso 1 1 1000

set type 1*2 charge 0.0
Setting atom values ...
  5 settings made for charge

run 100000
PPPM initialization ...
  extracting TIP4P info from pair style
  G vector (1/distance) = 0.27021504
  grid = 15 15 15
  stencil order = 5
  estimated absolute RMS force accuracy = 0.025869595
  estimated relative force accuracy = 7.7905518e-05
  3d grid and FFT values/proc = 2352 450
  update every 1 steps, delay 10 steps, check yes
Step TotEng KinEng PotEng E_vdwl E_coul E_long Temp Press Density
0    548.49163    647.43194   -98.940309   -203.16773    29916.943   -29812.884          300    792.60653   0.55642578
Averages over the last 11 of 21 rows, steps 50000 to 100000:
TotEng KinEng PotEng E_vdwl E_coul E_long Temp Press Density
-3300.28 642.358 -3942.64 748.242 25320.4 -30011.8 297.649 216.589 0.987864
Loop time of 668.747 on 12 procs for 100000 steps with 1085 atoms

reset_timestep 0

variable lambda equal ramp(0.0,1.0)
variable q1 equal -0.24*v_lambda
variable q2 equal  0.06*v_lambda

fix ADAPT all adapt/fep 100000   pair lj/cut/tip4p/long/soft lambda 1*2 3*4 v_lambda   atom charge 1 v_q1   atom charge 2 v_q2   after yes

thermo_style custom step etotal ke pe evdwl ecoul elong temp press density v_lambda v_q1 v_q2

variable dlambda equal 0.05
variable dq1 equal -0.24*v_dlambda
variable dq2 equal  0.06*v_dlambda

compute FEP all fep 300   pair lj/cut/tip4p/long/soft lambda 1*2 3*4 v_dlambda   atom charge 1 v_dq1   atom charge 2 v_dq2   volume yes

fix FEP all ave/time 20 4000 100000 c_FEP[*] file fep01.fep

dump TRAJ all custom 20000 dump.lammpstrj id mol type element xu yu zu
dump_modify TRAJ element C H O H

run 2000000
PPPM initialization ...
  extracting TIP4P info from pair style
  G vector (1/distance) = 0.28574247
  grid = 15 15 15
  stencil order = 5
  estimated absolute RMS force accuracy = 0.014533761
  estimated relative force accuracy = 4.3767988e-05
  3d grid and FFT values/proc = 2352 450
FEP settings ...
  temperature = 300.000000
  tail no
  lj/cut/tip4p/long/soft lambda 1-2 3-4
  1-1 charge
  2-2 charge
  update every 1 steps, delay 10 steps, check yes
Step TotEng KinEng PotEng E_vdwl E_coul E_long Temp Press Density v_lambda v_q1 v_q2
0   -3234.7709    663.02311    -3897.794      742.089    27095.239   -31735.545    307.22446    699.17165   0.98804377            0           -0            0
Averages over the last 201 of 401 rows, steps 1000000 to 2000000:
TotEng KinEng PotEng E_vdwl E_coul E_long Temp Press Density v_lambda v_q1 v_q2
-3305.53 647.436 -3952.97 746.85 27034.3 -31736.8 300.002 86.5897 0.984553 0.75 -0.18 0.045
Loop time of 14303.5 on 12 procs for 2000000 steps with 1085 atoms

# write_restart restart.*.lmp
write_data data.*.lmp
System init for write_data ...
PPPM initialization ...
  extracting TIP4P info from pair style
  G vector (1/distance) = 0.2855962
  grid = 15 15 15
  stencil order = 5
  estimated absolute RMS force accuracy = 0.014616839
  estimated relative force accuracy = 4.4018178e-05
  3d grid and FFT values/proc = 2352 450
  update every 1 steps, delay 10 steps, check yes
