LAMMPS (27 Nov 2018)
# INPUT FILE FOR DPD_Fluid

boundary        p p p

units           lj
atom_style      charge

region 		my_sim_box block 0.0 10.0 0.0 10.0 0.0 10.0
create_box 	3 my_sim_box
Created orthogonal box = (0 0 0) to (10 10 10)

create_atoms 	1 random 2804 100 my_sim_box
Created 2804 atoms
  Time spent = 0.000952728 secs
create_atoms    2 random 98 200 my_sim_box
Created 98 atoms
  Time spent = 0.000162095 secs
create_atoms    3 random 98 300 my_sim_box
Created 98 atoms
  Time spent = 9.44212e-05 secs

set		type 2 charge -1.0
  98 settings made for charge
set 		type 3 charge  1.0
  98 settings made for charge

comm_modify     mode single vel yes

mass            1 1.0
mass		2 1.0
mass		3 1.0

pair_style      hybrid/overlay dpd 1.0 1.0 245455 coul/slater/long 0.929 3.0
pair_coeff      * * dpd 25.0 4.5
pair_coeff	* * coul/slater/long

kspace_style    ewald 0.00001
dielectric      1.0

neighbor        2.0 bin
neigh_modify    every 1 delay 0 check no once no

timestep        0.02

fix             2 all nve

thermo          10
thermo_style    custom step spcpu temp press etotal pe ke ecoul elong evdwl
thermo_modify   line one

run             100000
Ewald initialization ...
  G vector (1/distance) = 1.0262
  estimated absolute RMS force accuracy = 1.01103e-05
  estimated relative force accuracy = 1.01103e-05
  KSpace vectors: actual max1d max3d = 2787 11 6083
                  kxmax kymax kzmax  = 11 11 11
  update every 1 steps, delay 0 steps, check no
Step S/CPU Temp Press TotEng PotEng KinEng E_coul E_long E_vdwl
0            0            0    23.709678    7.8987828    7.8987828            0 2.8532817e-05 -0.0091211487    7.9078754
Averages over the last 5001 of 10001 rows, steps 50000 to 100000:
Temp Press TotEng PotEng KinEng E_coul E_long E_vdwl
1.00995 23.7231 6.04735 4.53292 1.51442 0.00172076 -0.0217867 4.55299
Loop time of 4950.2 on 16 procs for 100000 steps with 3000 atoms

write_data	data.after_equilibration
Ewald initialization ...
  G vector (1/distance) = 1.0262
  estimated absolute RMS force accuracy = 1.01103e-05
  estimated relative force accuracy = 1.01103e-05
  KSpace vectors: actual max1d max3d = 2787 11 6083
                  kxmax kymax kzmax  = 11 11 11

compute         RDF_1_1 all rdf 50 1 1 cutoff 3.0
compute         RDF_1_2 all rdf 50 1 2 cutoff 3.0
compute         RDF_1_3 all rdf 50 1 3 cutoff 3.0
compute         RDF_2_2 all rdf 50 2 2 cutoff 3.0
compute         RDF_2_3 all rdf 50 2 3 cutoff 3.0
compute         RDF_3_3 all rdf 50 3 3 cutoff 3.0

fix             11 all ave/time 50 1 50 c_RDF_1_1[*] file tmp_1_1.rdf mode vector
fix             12 all ave/time 50 1 50 c_RDF_1_2[*] file tmp_1_2.rdf mode vector
fix             13 all ave/time 50 1 50 c_RDF_1_3[*] file tmp_1_3.rdf mode vector
fix             14 all ave/time 50 1 50 c_RDF_2_2[*] file tmp_2_2.rdf mode vector
fix             15 all ave/time 50 1 50 c_RDF_2_3[*] file tmp_2_3.rdf mode vector
fix             16 all ave/time 50 1 50 c_RDF_3_3[*] file tmp_3_3.rdf mode vector

run		10000
Ewald initialization ...
  G vector (1/distance) = 1.0262
  estimated absolute RMS force accuracy = 1.01103e-05
  estimated relative force accuracy = 1.01103e-05
  KSpace vectors: actual max1d max3d = 2787 11 6083
                  kxmax kymax kzmax  = 11 11 11
  update every 1 steps, delay 0 steps, check no
Step S/CPU Temp Press TotEng PotEng KinEng E_coul E_long E_vdwl
100000            0    1.0022223    23.472371     6.013796    4.5109637    1.5028324 0.0020964133 -0.023559824    4.5324271
Averages over the last 501 of 1001 rows, steps 105000 to 110000:
Temp Press TotEng PotEng KinEng E_coul E_long E_vdwl
1.01194 23.7353 6.05211 4.5347 1.51741 0.0017232 -0.0217551 4.55474
Loop time of 525.071 on 16 procs for 10000 steps with 3000 atoms

write_data	data.after_production_run
Ewald initialization ...
  G vector (1/distance) = 1.0262
  estimated absolute RMS force accuracy = 1.01103e-05
  estimated relative force accuracy = 1.01103e-05
  KSpace vectors: actual max1d max3d = 2787 11 6083
                  kxmax kymax kzmax  = 11 11 11
