LAMMPS (24 Aug 2020)
units metal
atom_style atomic
atom_modify map array sort 0 0.0
neigh_modify every 2 delay 10 check yes page 1000000 one 100000

## read in path data using fix property/atom- here 4th image of a NEB
fix pa all property/atom d_nx d_ny d_nz d_dnx d_dny d_dnz d_ddnx d_ddny d_ddnz
read_data pafipath.4.data fix pa NULL PafiPath
Reading data file ...
  orthogonal box = (0.0000000 0.0000000 0.0000000) to (19.987184 19.987184 19.987184)
  reading atoms ...
  687 atoms

## EAM potential
pair_style    eam/fs
pair_coeff * * ../../../../potentials/Fe_mm.eam.fs Fe
Reading eam/fs potential file ../../../../potentials/Fe_mm.eam.fs with DATE: 2007-06-11

mass * 55.85
thermo 100
min_style fire

compute pe all pe
variable pe equal pe
run 0
  update every 2 steps, delay 10 steps, check yes
Step Temp E_pair E_mol TotEng Press
0            0   -2828.2492            0   -2828.2492    3015.2014
Loop time of 2.82e-06 on 4 procs for 0 steps with 687 atoms

energy=-2828.24917967201

## compute property/atom to access relevant fields
compute pa all property/atom d_nx d_ny d_nz d_dnx d_dny d_dnz d_ddnx d_ddny d_ddnz
run 0
Step Temp E_pair E_mol TotEng Press
0            0   -2828.2492            0   -2828.2492    3015.2014
Loop time of 2.667e-06 on 4 procs for 0 steps with 687 atoms

## fix name group-id pafi compute-id temperature tdamp seed overdamped 0/1 com 0/1
fix hp all pafi pa 500.0 0.01 434 overdamped no com yes
fix pafi compute name,style: pa,property/atom

run 0
Step Temp E_pair E_mol TotEng Press
0            0   -2828.2492            0   -2828.2492    3015.2014
Loop time of 2.52725e-06 on 4 procs for 0 steps with 687 atoms

minimize 0 0 1000 1000 # best if using NEB path
  Parameters for fire:
    dmax delaystep dtgrow dtshrink alpha0 alphashrink tmax tmin    integrator halfstepback
     0.1        20    1.1      0.5   0.25        0.99   10 0.02 eulerimplicit          yes
Step Temp E_pair E_mol TotEng Press
0            0   -2828.2492            0   -2828.2492    3015.2014
Averages over the last 6 of 11 rows, steps 500 to 1000:
Temp E_pair E_mol TotEng Press
4.85812e-14 -2828.36 0 -2828.36 3092.89
Loop time of 0.43333 on 4 procs for 1000 steps with 687 atoms

Minimization stats:
  Stopping criterion = max iterations
  Energy initial, next-to-last, final =
  Force two-norm initial, final = 1.2831004431533406 7.468917439994878e-07
  Force max component initial, final = 0.33317058290719853 2.9321733663323357e-07
  Final line search alpha, max atom move = 0.0 0.0
  Iterations, force evaluations = 1000 1007

compute dx all displace/atom
compute dmag all reduce max c_dx[4]
variable maxjump equal sqrt(c_dmag)

thermo_style custom step pe temp v_maxjump

variable dn equal f_hp[4]*f_hp[4] # should be zero to float precision

fix af all ave/time 1 1000 1000 f_hp[1] f_hp[2] f_hp[3] v_dn

variable adn equal sqrt(f_af[4]) # should be very small (approx. 1e-6 A)
variable apf equal f_af[1]

run 1000
Step PotEng Temp v_maxjump
1000   -2828.3565 4.8416878e-14 3.9625012e-08
Averages over the last 6 of 11 rows, steps 1500 to 2000:
PotEng Temp v_maxjump
-2782.22 512.186 0.590331
Loop time of 0.446418 on 4 procs for 1000 steps with 687 atoms

minimize 0 0 1000 1000
  Parameters for fire:
    dmax delaystep dtgrow dtshrink alpha0 alphashrink tmax tmin    integrator halfstepback
     0.1        20    1.1      0.5   0.25        0.99   10 0.02 eulerimplicit          yes
Step PotEng Temp v_maxjump
2000   -2779.5449            0   0.58247597
Averages over the last 6 of 11 rows, steps 2500 to 3000:
PotEng Temp v_maxjump
-2828.36 4.86743e-14 0.00268958
Loop time of 0.432206 on 4 procs for 1000 steps with 687 atoms

Minimization stats:
  Stopping criterion = max iterations
  Energy initial, next-to-last, final =
  Force two-norm initial, final = 29.30132707276523 7.469232246845132e-07
  Force max component initial, final = 2.0790292865239595 2.9323707292916446e-07
  Final line search alpha, max atom move = 0.0 0.0
  Iterations, force evaluations = 1000 1008

variable s_pe equal -2828.3564662776
variable s_apf equal -0.44222069537824
variable s_adn equal 1.36645875188617e-05
variable s_maxjump equal 0.00308607949485962

unfix hp
unfix pa
unfix af
minimize 0 0 1000 1000
  Parameters for fire:
    dmax delaystep dtgrow dtshrink alpha0 alphashrink tmax tmin    integrator halfstepback
     0.1        20    1.1      0.5   0.25        0.99   10 0.02 eulerimplicit          yes
Step PotEng Temp v_maxjump
3000   -2828.3565            0 0.0030860795
Averages over the last 6 of 11 rows, steps 3500 to 4000:
PotEng Temp v_maxjump
-2828.58 1.70626e-25 0.543861
Loop time of 0.427843 on 4 procs for 1000 steps with 687 atoms

Minimization stats:
  Stopping criterion = max iterations
  Energy initial, next-to-last, final =
  Force two-norm initial, final = 0.5639144322930092 2.34573110665124e-13
  Force max component initial, final = 0.22089332498188619 2.0969337377607644e-14
  Final line search alpha, max atom move = 0.0 0.0
  Iterations, force evaluations = 1000 1017

print """
During run:
"""

During run:
  Average Distance From Hyperplane = 1.36645875188617e-05A (Should be very small, around 1e-5A),
  Average Force Projection Along MFEP = -0.44222069537824 eV/A

print """
In-plane minimization post-run:
"""

In-plane minimization post-run:
energy = -2828.3564662776 eV

Max Atomic Displacement = 0.00308607949485962A < 0.1A => No in-plane jumps
print """
Full minimization after removal of PAFI fixes:
"""

Full minimization after removal of PAFI fixes:
energy = -2828.57925588218 eV

Please see the log.cite file for references relevant to this simulation
