LAMMPS (09 Jan 2020)
# 3d Lennard-Jones melt

variable	x index 1
variable	y index 1
variable	z index 1

variable	xx equal 20*$x
variable	xx equal 20*1
variable	yy equal 20*$y
variable	yy equal 20*1
variable	zz equal 20*$z
variable	zz equal 20*1

units		lj
atom_style	atomic

lattice		fcc 0.8442
Lattice spacing in x,y,z = 1.6796 1.6796 1.6796
region		box block 0 20 0 20 0 20
create_box	1 box
Created orthogonal box = (0 0 0) to (33.5919 33.5919 33.5919)
create_atoms	1 box
Created 32000 atoms
mass		1 1.0

velocity	all create 1.44 87287 loop geom

pair_style	lj/cut 2.5
pair_coeff	1 1 1.0 1.0

neighbor	0.3 bin
neigh_modify	delay 0 every 20 check no

fix		1 all nve

dump            1 all custom 100 lj.dump id type x y z

compute         myRDF all rdf 50 cutoff 2.5
fix             2 all ave/time 100 10 1000 c_myRDF[*] file rdf.first mode vector

thermo          100
run		1000
  update every 20 steps, delay 0 steps, check no
Step Temp E_pair E_mol TotEng Press
0         1.44   -6.7733681            0   -4.6134356   -5.0197073
Averages over the last 6 of 11 rows, steps 500 to 1000:
Temp E_pair E_mol TotEng Press
0.714715 -5.69319 0 -4.62115 0.610358
Loop time of 7.44016 on 4 procs for 1000 steps with 32000 atoms
