LAMMPS (10 Feb 2021)
# two LJ particles

units real
boundary p p p

atom_style charge
pair_style lj/cut/coul/long/soft 1.0 0.0 0.0 12.0 12.0

region box block -15.0 15.0 -15.0 15.0 -15.0 15.0
create_box 2 box
Created orthogonal box = (-15.000000 -15.000000 -15.000000) to (15.000000 15.000000 15.000000)

# just two atoms...
#create_atoms 1 single  0.0 0.0 0.0
## create_atoms 2 single  3.36738 0.0 0.0
#create_atoms 2 single  6.0 0.0 0.0

# ...or a few on a lattice
lattice bcc 5.0
Lattice spacing in x,y,z = 5.0000000 5.0000000 5.0000000
create_atoms 1 box basis 1 1 basis 2 2
Created 432 atoms

mass   1  12.011
mass   2  12.011

pair_coeff   1   1   0.1   3.0  1.0
pair_coeff   1   2   0.1   3.0  1.0
pair_coeff   2   2   0.1   3.0  1.0

set type 1 charge  0.1
Setting atom values ...
  216 settings made for charge
set type 2 charge -0.1
Setting atom values ...
  216 settings made for charge

kspace_style pppm 1.0e-5

timestep 2.0

velocity all create 300.0 12345

fix INTEG all nvt temp 300.0 300.0 $(100.0*dt)
fix INTEG all nvt temp 300.0 300.0 200

variable lam equal ramp(1.0,0.0)
variable q1 equal  0.1*v_lam
variable q2 equal -0.1*v_lam

fix ADAPT all adapt/fep 200   pair lj/cut/coul/long/soft lambda * * v_lam   atom charge 1 v_q1 atom charge 2 v_q2

thermo_style custom step etotal ke pe epair evdwl ecoul elong temp press v_lam v_q1 v_q2
thermo 200

#dump TRAJ all custom 20 dump.lammpstrj id type element xu yu zu
#dump_modify TRAJ element C N

run 2000
PPPM initialization ...
  G vector (1/distance) = 0.18385633
  grid = 8 8 8
  stencil order = 5
  estimated absolute RMS force accuracy = 0.0026371085
  estimated relative force accuracy = 7.9415739e-06
  3d grid and FFT values/proc = 2197 512
  update every 1 steps, delay 10 steps, check yes
Step TotEng KinEng PotEng E_pair E_vdwl E_coul E_long Temp Press v_lam v_q1 v_q2
0    -12.26816    385.41874    -397.6869    -397.6869   -104.94426    -143.9636   -148.77903          300   -85.376499            1          0.1         -0.1
Averages over the last 6 of 11 rows, steps 1000 to 2000:
TotEng KinEng PotEng E_pair E_vdwl E_coul E_long Temp Press v_lam v_q1 v_q2
371.868 392.195 -20.327 -20.327 -7.71026 -1.71464 -10.9021 305.275 931.483 0.25 0.025 -0.025
Loop time of 2.57067 on 1 procs for 2000 steps with 432 atoms

#write_data data.*.lmp
