LAMMPS (10 Feb 2021)
# Example: use of lj/relres for simulation of 2,2-dimethylhexane: C3H7-C5H11
# with various Rso setting as well as run of reference system for time comparison (real units)
# The first run writes restart file that is used by all subsequent runs.

# Run relres with Rso=6.25

units           real
atom_style      molecular
boundary        p p p
dielectric      1
special_bonds   lj/coul 0.0 0.0 0.5
bond_style      harmonic
angle_style     harmonic
dihedral_style  fourier

pair_style      lj/relres 5.75 6.25 12.0 14.0
read_data       Data.22DMH.in.real
Reading data file ...
  orthogonal box = (3.7421629 3.7421629 3.7421629) to (68.257837 68.257837 68.257837)
  reading atoms ...
  8000 atoms
  reading velocities ...
  8000 velocities
  scanning bonds ...
  scanning angles ...
  scanning dihedrals ...
  reading bonds ...
  7000 bonds
  reading angles ...
  9000 angles
  reading dihedrals ...
  5000 dihedrals
Finding 1-2 1-3 1-4 neighbors ...
     4 = max # of 1-2 neighbors
     4 = max # of 1-3 neighbors
     5 = max # of 1-4 neighbors
     7 = max # of special neighbors

pair_coeff      6    6  0.175  3.905  0.0     0.0
pair_coeff      4    4  0.118  3.905  0.0     0.0
pair_coeff      2    2  0.118  3.905  1.2218  3.905
pair_coeff      5    5  0.145  3.960  0.0     0.0
pair_coeff      3    3  0.118  3.905  0.0     0.0
pair_coeff      1    1  0.05   3.8    2.9128  3.9309
pair_modify     shift yes
neighbor        2.0 bin
neigh_modify    every 2 delay 4 check yes

timestep 1.0
thermo 100
thermo_style custom step temp press pe ke etotal epair emol vol
fix 2 all nvt temp 290 290 2.0e+02

run 1000

CITE-CITE-CITE-CITE-CITE-CITE-CITE-CITE-CITE-CITE-CITE-CITE-CITE

Your simulation uses code contributions which should be cited:

- Pair style lj/relres: doi:10.1021/acs.jctc.0c01003

@Article{Chaimovich1,
 author = {A. Chaimovich, C. Peter, K. Kremer},
 title = {Relative resolution: A hybrid formalism for fluid mixtures},
 journal = {J.~Chem.~Phys.},
 year =    2015,
 volume =  143,
 pages =   {243107}
@Article{Chaimovich2,
 author = {M. Chaimovich, A. Chaimovich},
 title = {Relative Resolution: A Computationally Efficient Implementation in LAMMPS},
 journal = {J.~Chem.~Theory~Comput.},
 year =    2021,
 volume =  17,
 pages =   {1045--1059}
}

CITE-CITE-CITE-CITE-CITE-CITE-CITE-CITE-CITE-CITE-CITE-CITE-CITE

  update every 2 steps, delay 4 steps, check yes
Step Temp Press PotEng KinEng TotEng E_pair E_mol Volume
0    286.85653   -328.51562    3703.8924    6839.6636    10543.556   -4875.3137    8579.2062     268531.8
Averages over the last 6 of 11 rows, steps 500 to 1000:
Temp Press PotEng KinEng TotEng E_pair E_mol Volume
290.41 74.8102 3248.15 6924.4 10172.5 -4977.65 8225.79 268532
Loop time of 2.12445 on 4 procs for 1000 steps with 8000 atoms

write_restart	restart.relres.real
System init for write_restart ...

# Run relres with Rso=7.25

clear
read_restart	restart.relres.real
Reading restart file ...
  restart file = 10 Feb 2021, LAMMPS = 10 Feb 2021
  restoring atom style molecular from restart
  orthogonal box = (3.7421629 3.7421629 3.7421629) to (68.257837 68.257837 68.257837)
  restoring pair style lj/relres from restart
  restoring bond style harmonic from restart
  restoring angle style harmonic from restart
  restoring dihedral style fourier from restart
  8000 atoms
  7000 bonds
  9000 angles
  5000 dihedrals
Finding 1-2 1-3 1-4 neighbors ...
     4 = max # of 1-2 neighbors
     4 = max # of 1-3 neighbors
     5 = max # of 1-4 neighbors
     7 = max # of special neighbors
  read_restart CPU = 0.005 seconds

pair_style      lj/relres 6.75 7.25 12.0 14.0

pair_coeff      6    6  0.175  3.905  0.0     0.0
pair_coeff      4    4  0.118  3.905  0.0     0.0
pair_coeff      2    2  0.118  3.905  1.2218  3.905
pair_coeff      5    5  0.145  3.960  0.0     0.0
pair_coeff      3    3  0.118  3.905  0.0     0.0
pair_coeff      1    1  0.05   3.8    2.9128  3.9309
pair_modify     shift yes
neighbor        2.0 bin
neigh_modify    every 2 delay 4 check yes

timestep 1.0
thermo 100
thermo_style custom step temp press pe ke etotal epair emol vol
fix 2 all nvt temp 290 290 2.0e+02
  fix style: nvt, fix ID: 2

run 1000
All restart file global fix info was re-assigned
  update every 2 steps, delay 4 steps, check yes
Step Temp Press PotEng KinEng TotEng E_pair E_mol Volume
1000    290.11974     21.86402    3334.7257      6917.47    10252.196   -4851.6973     8186.423     268531.8
Averages over the last 6 of 11 rows, steps 1500 to 2000:
Temp Press PotEng KinEng TotEng E_pair E_mol Volume
289.143 -123.033 3506.25 6894.19 10400.4 -4836.87 8343.11 268532
Loop time of 2.6513 on 4 procs for 1000 steps with 8000 atoms

# Run relres with mixed Rso: 6.25 for C3H7 group and 7.25 for C5H11 group

clear
read_restart	restart.relres.real
Reading restart file ...
  restart file = 10 Feb 2021, LAMMPS = 10 Feb 2021
  restoring atom style molecular from restart
  orthogonal box = (3.7421629 3.7421629 3.7421629) to (68.257837 68.257837 68.257837)
  restoring pair style lj/relres from restart
  restoring bond style harmonic from restart
  restoring angle style harmonic from restart
  restoring dihedral style fourier from restart
  8000 atoms
  7000 bonds
  9000 angles
  5000 dihedrals
Finding 1-2 1-3 1-4 neighbors ...
     4 = max # of 1-2 neighbors
     4 = max # of 1-3 neighbors
     5 = max # of 1-4 neighbors
     7 = max # of special neighbors
  read_restart CPU = 0.004 seconds

pair_style      lj/relres 6.75 7.25 12.0 14.0

pair_coeff      6    6  0.175  3.905  0.0     0.0    5.75 6.25 12.0 14.0
pair_coeff      4    4  0.118  3.905  0.0     0.0    5.75 6.25 12.0 14.0
pair_coeff      2    2  0.118  3.905  1.2218  3.905  5.75 6.25 12.0 14.0
pair_coeff      5    5  0.145  3.960  0.0     0.0
pair_coeff      3    3  0.118  3.905  0.0     0.0
pair_coeff      1    1  0.05   3.8    2.9128  3.9309
pair_modify     shift yes
neighbor        2.0 bin
neigh_modify    every 2 delay 4 check yes

timestep 1.0
thermo 100
thermo_style custom step temp press pe ke etotal epair emol vol
fix 2 all nvt temp 290 290 2.0e+02
  fix style: nvt, fix ID: 2

run 1000
All restart file global fix info was re-assigned
  update every 2 steps, delay 4 steps, check yes
Step Temp Press PotEng KinEng TotEng E_pair E_mol Volume
1000    290.11974    54.754001    3314.0966      6917.47    10231.567   -4872.3264     8186.423     268531.8
Averages over the last 6 of 11 rows, steps 1500 to 2000:
Temp Press PotEng KinEng TotEng E_pair E_mol Volume
289.264 -156.21 3480.42 6897.07 10377.5 -4864.03 8344.45 268532
Loop time of 2.32221 on 4 procs for 1000 steps with 8000 atoms

# Run reference system with lj/smooth

clear
read_restart	restart.relres.real
Reading restart file ...
  restart file = 10 Feb 2021, LAMMPS = 10 Feb 2021
  restoring atom style molecular from restart
  orthogonal box = (3.7421629 3.7421629 3.7421629) to (68.257837 68.257837 68.257837)
  restoring pair style lj/relres from restart
  restoring bond style harmonic from restart
  restoring angle style harmonic from restart
  restoring dihedral style fourier from restart
  8000 atoms
  7000 bonds
  9000 angles
  5000 dihedrals
Finding 1-2 1-3 1-4 neighbors ...
     4 = max # of 1-2 neighbors
     4 = max # of 1-3 neighbors
     5 = max # of 1-4 neighbors
     7 = max # of special neighbors
  read_restart CPU = 0.007 seconds

pair_style      lj/smooth 12.0 14.0

pair_coeff      6    6  0.175  3.905
pair_coeff      4    4  0.118  3.905
pair_coeff      2    2  0.118  3.905
pair_coeff      5    5  0.145  3.960
pair_coeff      3    3  0.118  3.905
pair_coeff      1    1  0.05   3.8
pair_modify     shift yes
neighbor        2.0 bin
neigh_modify    every 2 delay 4 check yes

timestep 1.0
thermo 100
thermo_style custom step temp press pe ke etotal epair emol vol
fix 2 all nvt temp 290 290 2.0e+02
  fix style: nvt, fix ID: 2

run 1000
All restart file global fix info was re-assigned
  update every 2 steps, delay 4 steps, check yes
Step Temp Press PotEng KinEng TotEng E_pair E_mol Volume
1000    290.11974   -80.648214    3258.0256      6917.47    10175.496   -4928.3973     8186.423     268531.8
Averages over the last 6 of 11 rows, steps 1500 to 2000:
Temp Press PotEng KinEng TotEng E_pair E_mol Volume
289.075 -175.095 3438.41 6892.57 10331 -4906.17 8344.59 268532
Loop time of 7.44371 on 4 procs for 1000 steps with 8000 atoms
