LAMMPS (10 Feb 2021)
# Example: use of lj/relres for simulation of 2,2-dimethylhexane: C3H7-C5H11
# with with mixed Rso: 0.625e-9 for C3H7 group and 0.725e-9 for C5H11 group (si units)

units           si
atom_style      molecular
boundary        p p p
dielectric      1
special_bonds   lj/coul 0.0 0.0 0.5

pair_style      lj/relres 0.675e-9 .725e-9 1.2e-9 1.4e-9
bond_style      harmonic
angle_style     harmonic
dihedral_style  fourier
read_data       Data.22DMH.in.relres
Reading data file ...
  orthogonal box = (3.7421629e-10 3.7421629e-10 3.7421629e-10) to (6.8257837e-09 6.8257837e-09 6.8257837e-09)
  reading atoms ...
  8000 atoms
  reading velocities ...
  8000 velocities
  scanning bonds ...
  scanning angles ...
  scanning dihedrals ...
  reading bonds ...
  7000 bonds
  reading angles ...
  9000 angles
  reading dihedrals ...
  5000 dihedrals
Finding 1-2 1-3 1-4 neighbors ...
     4 = max # of 1-2 neighbors
     4 = max # of 1-3 neighbors
     5 = max # of 1-4 neighbors
     7 = max # of special neighbors
pair_coeff      6    6  1.21585e-21  0.3905e-9  0.0           0.0         0.575e-9 0.625e-9 1.2e-9 1.4e-9
pair_coeff      4    4  0.819828e-21 0.3905e-9  0.0           0.0          0.575e-9 0.625e-9 1.2e-9 1.4e-9
pair_coeff      2    2  0.819828e-21 0.3905e-9  8.48872E-21   0.3905E-9   0.575e-9 0.625e-9 1.2e-9 1.4e-9
pair_coeff      5    5  1.00742E-21  0.396E-9   0.0           0.0
pair_coeff      3    3  0.819828e-21 0.3905e-9  0.0           0.0
pair_coeff      1    1  0.347385E-21 0.38E-9    20.2372E-21   0.39309E-9
pair_modify     shift yes
neighbor        2.0e-10 bin
neigh_modify    every 2 delay 4 check yes

timestep 1.0e-15
thermo 100
thermo_style custom step temp press pe ke etotal epair emol vol
fix 2 all nvt temp 290 290 2.0e-13

run 1000

CITE-CITE-CITE-CITE-CITE-CITE-CITE-CITE-CITE-CITE-CITE-CITE-CITE

Your simulation uses code contributions which should be cited:

- Pair style lj/relres: doi:10.1021/acs.jctc.0c01003

@Article{Chaimovich1,
 author = {A. Chaimovich, C. Peter, K. Kremer},
 title = {Relative resolution: A hybrid formalism for fluid mixtures},
 journal = {J.~Chem.~Phys.},
 year =    2015,
 volume =  143,
 pages =   {243107}
@Article{Chaimovich2,
 author = {M. Chaimovich, A. Chaimovich},
 title = {Relative Resolution: A Computationally Efficient Implementation in LAMMPS},
 journal = {J.~Chem.~Theory~Comput.},
 year =    2021,
 volume =  17,
 pages =   {1045--1059}
}

CITE-CITE-CITE-CITE-CITE-CITE-CITE-CITE-CITE-CITE-CITE-CITE-CITE

  update every 2 steps, delay 4 steps, check yes
Step Temp Press PotEng KinEng TotEng E_pair E_mol Volume
0    286.85659    -21390710 2.6345656e-17 4.7519899e-17 7.3865555e-17 -3.3260066e-17 5.9605722e-17 2.685318e-25
Averages over the last 6 of 11 rows, steps 500 to 1000:
Temp Press PotEng KinEng TotEng E_pair E_mol Volume
290.939 2.35401e+07 2.35712e-17 4.81962e-17 7.17674e-17 -3.35962e-17 5.71675e-17 2.68532e-25
Loop time of 2.33734 on 4 procs for 1000 steps with 8000 atoms

#write_data Data.22DMH.out.relres pair ij
#pair_write 1 1 1201 r 0.2e-9 1.4e-9  potential.relres LJ11
#pair_write 2 2 1201 r 0.2e-9 1.4e-9  potential.relres LJ22
#pair_write 1 2 1201 r 0.2e-9 1.4e-9  potential.relres LJ12
