LAMMPS (29 Oct 2020)
# created by fftool

units real
boundary p p p

atom_style full
bond_style harmonic
angle_style harmonic
special_bonds lj/coul 0.0 0.0 0.5

read_data data.0.lmp
Reading data file ...
  orthogonal box = (-13.443762 -13.443762 -13.443762) to (13.443762 13.443762 13.443762)
  reading atoms ...
  1089 atoms
  scanning bonds ...
  scanning angles ...
  reading bonds ...
  728 bonds
  reading angles ...
  388 angles
Finding 1-2 1-3 1-4 neighbors ...
     8 = max # of 1-2 neighbors
     7 = max # of 1-3 neighbors
     7 = max # of 1-4 neighbors
     8 = max # of special neighbors
# read_restart restart.*.lmp
# reset_timestep 0

pair_style hybrid lj/cut/coul/long 10.0 10.0 lj/cut/coul/long/soft 1 0.5 10.0 10.0 10.0
pair_modify tail yes
kspace_style pppm 1.0e-4

pair_coeff    1    1  lj/cut/coul/long    0.0660   3.5000  # C-CF C-CF
pair_coeff    1    2  lj/cut/coul/long    0.0445   2.9580  # C-CF H-D
pair_coeff    1    3  lj/cut/coul/long    0.0591   3.2133  # C-CF FD-
pair_coeff    1    4  lj/cut/coul/long    0.0000   1.8708  # C-CF Hw
pair_coeff    1    5  lj/cut/coul/long    0.1013   3.3286  # C-CF Ow
pair_coeff    2    2  lj/cut/coul/long    0.0300   2.5000  # H-D H-D
pair_coeff    2    3  lj/cut/coul/long    0.0399   2.7157  # H-D FD-
pair_coeff    2    4  lj/cut/coul/long/soft    0.0000   1.5811  1.0  # H-D Hw
pair_coeff    2    5  lj/cut/coul/long/soft    0.0683   2.8131  1.0  # H-D Ow
pair_coeff    3    3  lj/cut/coul/long    0.0530   2.9500  # FD- FD-
pair_coeff    3    4  lj/cut/coul/long/soft    0.0000   1.7176  0.0  # FD- Hw
pair_coeff    3    5  lj/cut/coul/long/soft    0.0908   3.0559  0.0  # FD- Ow
pair_coeff    4    4  lj/cut/coul/long    0.0000   1.0000  # Hw Hw
pair_coeff    4    5  lj/cut/coul/long    0.0000   1.7792  # Hw Ow
pair_coeff    5    5  lj/cut/coul/long    0.1554   3.1655  # Ow Ow

variable TK equal 300.0
variable PBAR equal 1.0

neighbor 2.0 bin

timestep 1.0

velocity all create 300 12345

fix SHAKE all shake 0.0001 20 0 b 3 a 4
       0 = # of size 2 clusters
       0 = # of size 3 clusters
       0 = # of size 4 clusters
     360 = # of frozen angles
  find clusters CPU = 0.001 seconds

fix NPT all npt temp 300 300 100 iso 1 1 500

thermo_style custom step cpu etotal ke pe evdwl ecoul elong temp press vol density
thermo 1000

run 200000
PPPM initialization ...
  G vector (1/distance) = 0.27021276
  grid = 15 15 15
  stencil order = 5
  estimated absolute RMS force accuracy = 0.016910392
  estimated relative force accuracy = 5.0925143e-05
  3d grid and FFT values/proc = 2352 450
  update every 1 steps, delay 10 steps, check yes
Step CPU TotEng KinEng PotEng E_vdwl E_coul E_long Temp Press Volume Density
0            0    798.08888     972.9364   -174.84752    -201.6326    19449.757    -19423.16    448.35165    1094.5342    19438.038   0.56189244
Averages over the last 101 of 201 rows, steps 100000 to 200000:
TotEng KinEng PotEng E_vdwl E_coul E_long Temp Press Volume Density
-3365.34 650.796 -4016.14 765.893 14862.8 -19649.2 299.902 58.1823 10898.2 1.00237
Loop time of 568.519 on 12 procs for 200000 steps with 1089 atoms

reset_timestep 0
unfix NPT
fix NVT all nvt temp 300 300 100

variable dlambda equal  1.0
variable minusdl equal -1.0
variable dqC equal  (0.48+0.24)*v_dlambda
variable dqH equal -0.06*v_dlambda
variable dqF equal -0.12*v_dlambda

compute FEP all fep 300     pair lj/cut/coul/long/soft lambda 2 4*5 v_minusdl     pair lj/cut/coul/long/soft lambda 3 4*5 v_dlambda     atom charge 1 v_dqC     atom charge 2 v_dqH     atom charge 3 v_dqF

fix FEP all ave/time 1 1 100 c_FEP[1] c_FEP[2] file bar01.fep

dump TRAJ all custom 5000 dump.lammpstrj id mol type element xu yu zu
dump_modify TRAJ element C H F H O

run 500000
PPPM initialization ...
  G vector (1/distance) = 0.26771633
  grid = 12 12 12
  stencil order = 5
  estimated absolute RMS force accuracy = 0.025848288
  estimated relative force accuracy = 7.7841351e-05
  3d grid and FFT values/proc = 1859 144
FEP settings ...
  temperature = 300.000000
  tail no
  lj/cut/coul/long/soft lambda 2-2 4-5
  lj/cut/coul/long/soft lambda 3-3 4-5
  1-1 charge
  2-2 charge
  3-3 charge
  update every 1 steps, delay 10 steps, check yes
Step CPU TotEng KinEng PotEng E_vdwl E_coul E_long Temp Press Volume Density
0            0   -3392.5233    655.59989   -4048.1232    788.37821    14629.081   -19468.975    302.11563    66.207268    10884.769    1.0034285
Averages over the last 251 of 501 rows, steps 250000 to 500000:
TotEng KinEng PotEng E_vdwl E_coul E_long Temp Press Volume Density
-3362.17 651.686 -4013.86 755.002 14694.1 -19468 300.312 -120.121 10884.8 1.00343
Loop time of 1288.07 on 12 procs for 500000 steps with 1089 atoms

# write_restart restart.*.lmp
write_data data.*.lmp
System init for write_data ...
PPPM initialization ...
  G vector (1/distance) = 0.26771633
  grid = 12 12 12
  stencil order = 5
  estimated absolute RMS force accuracy = 0.025848288
  estimated relative force accuracy = 7.7841351e-05
  3d grid and FFT values/proc = 1859 144
  update every 1 steps, delay 10 steps, check yes
