LAMMPS (24 Dec 2020)
# Big colloid particles and small LJ particles

units		lj
atom_style	sphere
dimension	2

lattice		sq 0.5
Lattice spacing in x,y,z = 1.4142136 1.4142136 1.4142136
region		box block 0 60 0 60 -0.5 0.5
create_box	2 box
Created orthogonal box = (0.0000000 0.0000000 -0.70710678) to (84.852814 84.852814 0.70710678)
create_atoms	1 box
Created 3600 atoms
change_box      all triclinic
Changing box ...
  triclinic box = (0.0000000 0.0000000 -0.70710678) to (84.852814 84.852814 0.70710678) with tilt (0.0000000 0.0000000 0.0000000)

# remove two spheres of small particles and add large particles in the voids
region sphere1 sphere 20.0 20.0 0.0 10.0 units box
region sphere2 sphere 60.0 60.0 0.0 10.0 units box
delete_atoms  region sphere1
Deleted 154 atoms, new total = 3446
delete_atoms  region sphere2
Deleted 158 atoms, new total = 3288
create_atoms 2 single 20.0 20.0 0.0 units box
Created 1 atoms
create_atoms 2 single 60.0 60.0 0.0 units box
Created 1 atoms

set		type 2 mass 400
Setting atom values ...
  2 settings made for mass
set		type 1 mass 1
Setting atom values ...
  3288 settings made for mass
set     type 2 diameter 20
Setting atom values ...
  2 settings made for diameter
set     type 1 diameter 1
Setting atom values ...
  3288 settings made for diameter

velocity	all create 1.44 87287 loop geom

# multi neighbor and comm for efficiency

neighbor	1 multi/old #multi
neigh_modify	delay 0 #collection/interval 2 1 20
comm_modify     mode multi/old vel yes #reduce/multi

# colloid potential

pair_style      granular
pair_coeff      * * hooke 1.0 0.5 tangential linear_history 1.0 0.5 0.1 damping mass_velocity

fix		1 all nph/sphere iso 0.0 1.0 10.0 drag 1.0
fix		2 all enforce2d
fix             3 all deform 1 xy erate 1e-3

#dump		1 all custom 1000 dump.granular id x y z radius

#dump		2 all image 1000 image.*.jpg type type #		zoom 1.5 center d 0.5 0.5 0.5
#dump_modify	2 pad 5 adiam 1 5.0 adiam 2 1.5

#dump		3 all movie 1000 movie.mpg type type #		zoom 1.5 center d 0.5 0.5 0.5
#dump_modify	3 pad 5 adiam 1 5.0 adiam 2 1.5

thermo_style	custom step temp epair etotal press vol
thermo		1000

timestep	0.005

run		50000
  update every 1 steps, delay 0 steps, check yes
Step Temp E_pair TotEng Press Volume
0         1.44            0    1.4395623   0.66837658         7200
Averages over the last 26 of 51 rows, steps 25000 to 50000:
Temp E_pair TotEng Press Volume
0.0006455 0 0.000645304 0.681565 2067.61
Loop time of 30.1448 on 4 procs for 50000 steps with 3290 atoms

Please see the log.cite file for references relevant to this simulation
