LAMMPS (24 Dec 2020)
# Shear power-law distributed granular particles

units		lj
atom_style	sphere
dimension	2
read_data       data.powerlaw
Reading data file ...
  triclinic box = (9.9514336 9.9514336 0.0000000) to (331.81396 331.81396 1.0000000) with tilt (0.0000000 0.0000000 0.0000000)
  reading atoms ...
  10000 atoms
  reading velocities ...
  10000 velocities
change_box      all triclinic
Changing box ...
  triclinic box = (9.9514336 9.9514336 0.0000000) to (331.81396 331.81396 1.0000000) with tilt (0.0000000 0.0000000 0.0000000)

# multi neighbor and comm for efficiency

neighbor	1 multi
neigh_modify	delay 0 collection/interval 6 1.5 3 10 30 100 200
comm_modify     mode multi vel yes reduce/multi

# granular potential

pair_style      granular
pair_coeff      * * hooke 20.0 0.5 tangential linear_history 1.0 0.5 0.1 damping mass_velocity

# fixes

fix		1 all nve/sphere
fix		2 all enforce2d
fix             3 all deform 1 xy erate 1e-4

# dump		1 all custom 20000 dump.granular id x y z radius

thermo_style	custom step temp epair etotal press vol pxy
thermo		1000

timestep	0.005

run		200000
  update every 1 steps, delay 0 steps, check yes
Step Temp E_pair TotEng Press Volume Pxy
0 4.9204851e-05            0 4.9199931e-05   0.61204991    103595.49 -0.00083309917
Averages over the last 101 of 201 rows, steps 100000 to 200000:
Temp E_pair TotEng Press Volume Pxy
0.000666745 0 0.000666678 0.558348 103595 -0.0931219
Loop time of 443.321 on 1 procs for 200000 steps with 10000 atoms

Please see the log.cite file for references relevant to this simulation
