LAMMPS (10 Mar 2021)
# sample surface deposition script for molecules

units		lj
atom_style      bond
boundary        p p f

lattice		fcc 1.0
Lattice spacing in x,y,z = 1.5874011 1.5874011 1.5874011
region          box block 0 5 0 5 0 10
create_box      3 box bond/types 1 extra/bond/per/atom 1
Created orthogonal box = (0.0000000 0.0000000 0.0000000) to (7.9370053 7.9370053 15.874011)

region		substrate block INF INF INF INF INF 3
create_atoms	1 region substrate
Created 350 atoms

pair_style	lj/cut 2.5
pair_coeff	* * 1.0 1.0
pair_coeff	1 2 1.0 1.0 5.0
mass		* 1.0

bond_style	harmonic
bond_coeff      1 5.0 1.0

neigh_modify	delay 0

molecule        dimer molecule.dimer
Read molecule template dimer:
  1 molecules
  2 atoms with max type 3
  1 bonds with max type 1
  0 angles with max type 0
  0 dihedrals with max type 0
  0 impropers with max type 0
region          slab block 0 5 0 5 8 9

group		addatoms empty
0 atoms in group addatoms
region          mobile block 0 5 0 5 2 INF
group		mobile region mobile
150 atoms in group mobile

compute	add addatoms temp
compute_modify	add dynamic/dof yes extra/dof 0

fix		1 addatoms rigid/small molecule mol dimer
  0 rigid bodies with 0 atoms
  1.0000000 = max distance from body owner to body atom
fix		2 mobile langevin 0.1 0.1 0.1 587283
fix		3 mobile nve

fix		4 addatoms deposit 100 0 100 12345 region slab near 1.0                 mol dimer vz -1.0 -1.0 rigid 1
fix		5 addatoms wall/reflect zhi EDGE

thermo_style	custom step atoms temp epair etotal press
thermo          100
thermo_modify	temp add lost/bond ignore lost warn

#dump		1 all atom 50 dump.deposit.atom

#dump		2 all image 50 image.*.jpg type type #		axes yes 0.8 0.02 view 80 -30
#dump_modify	2 pad 5

#dump		3 all movie 50 tmp.mpg type type #		axes yes 0.8 0.02 view 80 -30
#dump_modify	3 pad 5

run             10000
  update every 1 steps, delay 0 steps, check yes
Step Atoms Temp E_pair TotEng Press
0      350            0   -6.9215833   -6.9215833   -1.0052629
Averages over the last 51 of 101 rows, steps 5000 to 10000:
Atoms Temp E_pair TotEng Press
500 0.343998 -6.70218 -6.57533 -0.806517
Loop time of 17.2852 on 1 procs for 10000 steps with 550 atoms
