LAMMPS (09 Jan 2020)
#Initialisation

units             nano
dimension         3
boundary          p p p
atom_style        full
comm_modify       cutoff 11.0
neighbor          7.80 bin
newton            on

#Read data

read_data           cnt.data
  orthogonal box = (0 0 0) to (600 600 60)
  reading atoms ...
  500 atoms
  scanning bonds ...
  scanning angles ...
  reading bonds ...
  498 bonds
  reading angles ...
  496 angles
replicate 1 2 2
  orthogonal box = (0 0 0) to (600 1200 120)
  2000 atoms
  1992 bonds
  1984 angles
  replicate CPU = 0.00055337 secs

#Force field

bond_style        harmonic
bond_coeff        1 268896.77 2.0

angle_style       harmonic
angle_coeff       1 46562.17 180.0

pair_style        mesocnt
pair_coeff      * * 10_10.cnt
Reading potential file 10_10.cnt with DATE: 2020-01-13

#Output

thermo          1000
dump            xyz all xyz 1000 cnt.xyz

#Simulation setup

timestep        1.0e-05

#Nose-Hoover thermostat
fix             nvt all nvt temp 300 300 0.001
run             10000
  update every 1 steps, delay 10 steps, check yes
Step Temp E_pair E_mol TotEng Press
0            0   -4632.0136 5.7939238e-17   -4632.0136 -0.00015032304
Averages over the last 6 of 11 rows, steps 5000 to 10000:
Temp E_pair E_mol TotEng Press
299.479 -64673 12952.6 -39322.3 -0.000933515
Loop time of 1.23665 on 4 procs for 10000 steps with 2000 atoms
