LAMMPS (27 May 2021)
# SRD viscosity demo - rigid box particles

units           lj
atom_style      sphere
atom_modify     map array first big
dimension       2

# read in clusters of rigid bodies

fix             molprop all property/atom mol ghost yes
read_data       data.box fix molprop NULL Molecules
Reading data file ...
  orthogonal box = (-19.144690 -19.144690 -0.50000000) to (19.144690 19.144690 0.50000000)
  reading atoms ...
  420 atoms

set             type 1 mass 1.0
Setting atom values ...
  420 settings made for mass
group           big type 1
420 atoms in group big
velocity        big create 1.44 87287 loop geom

# equilibrate big particles

pair_style      soft 1.12
pair_coeff      1 1 0.0
pair_coeff      2 2 0.0 0.0
pair_coeff      1 2 0.0 0.0

variable        prefactor equal ramp(0,60)
fix             soft all adapt 1 pair soft a * * v_prefactor

neighbor        0.3 bin
neigh_modify    delay 0 every 1 check yes

fix             1 big rigid molecule
  30 rigid bodies with 420 atoms
fix             2 all enforce2d

#dump           1 all atom 10 dump.box.equil

compute         tbig all temp/sphere
thermo_modify   temp tbig

thermo          100
run             1000
  update every 1 steps, delay 0 steps, check yes
Step Temp E_pair E_mol TotEng Press
0    1.4252596            0            0   0.14931291    -8.727261
Averages over the last 6 of 11 rows, steps 500 to 1000:
Temp E_pair E_mol TotEng Press
25.7582 17.0787 0 19.7772 1.0419
Loop time of 0.0821786 on 4 procs for 1000 steps with 420 atoms

#undump         1
unfix           soft
unfix           1
unfix           2

# add small particles as hi density lattice

region          plane block INF INF INF INF -0.001 0.001 units box
lattice         sq 85.0
Lattice spacing in x,y,z = 0.10846523 0.10846523 0.10846523
create_atoms    2 region plane
Created 124609 atoms

set             type 2 mass 0.1
Setting atom values ...
  124609 settings made for mass
group           small type 2
124609 atoms in group small
velocity        small create 1.0 593849 loop geom

# delete overlaps
# must set 1-2 cutoff to non-zero value

pair_style      lj/cut 2.5
pair_coeff      1 1 1.0 1.0
pair_coeff      2 2 0.0 1.0 0.0
pair_coeff      1 2 0.0 1.0 1.0

delete_atoms    overlap 1.0 small big
System init for delete_atoms ...
  update every 1 steps, delay 0 steps, check yes
Deleted 51030 atoms, new total = 73999

# SRD run

reset_timestep  0

neighbor        0.3 multi
neigh_modify    delay 0 every 1 check yes

comm_modify     mode multi group big vel yes
neigh_modify    include big

# no pairwise interactions with small particles

pair_style      lj/cut 2.5
pair_coeff      1 1 1.0 1.0
pair_coeff      2 2 0.0 1.0 0.0
pair_coeff      1 2 0.0 1.0 0.0

# use fix SRD to push small particles out from inside big ones
# if comment out, big particles won't see SRD particles

timestep        0.001

fix             1 big rigid molecule
  30 rigid bodies with 420 atoms
fix             2 small srd 20 big 1.0 0.25 49894 shift yes 54979                   search 0.2 collision slip inside ignore overlap yes
fix             3 small viscosity 10 x y 50
fix             4 all enforce2d

# diagnostics

uncompute       tbig
compute         tbig big temp/sphere
variable        pebig equal pe*atoms/count(big)
variable        ebig equal etotal*atoms/count(big)
thermo_style    custom step temp f_2[8] etotal v_pebig v_ebig press                 f_2[1] f_2[2] f_2[3] f_2[4] f_2[5]                 f_2[6] f_2[7] f_2[8] f_2[9] f_2[10] f_2[11] f_2[12]

thermo_modify   temp tbig
thermo          1000

#dump           1 all atom 1000 dump.box.mp

#dump           1 all image 1000 image.*.jpg type type zoom 1.6
#dump_modify    1 pad 6 adiam 1 1 adiam 2 0.2

run             10000

CITE-CITE-CITE-CITE-CITE-CITE-CITE-CITE-CITE-CITE-CITE-CITE-CITE

Your simulation uses code contributions which should be cited:

- neighbor multi command: doi:10.1016/j.cpc.2008.03.005, doi:10.1007/s40571-020-00361-2

@Article{Intveld08,
 author =  {P.{\,}J.~in{\,}'t~Veld and S.{\,}J.~Plimpton and G.{\,}S.~Grest},
 title =   {Accurate and Efficient Methods for Modeling Colloidal
            Mixtures in an Explicit Solvent using Molecular Dynamics},
 journal = {Comp.~Phys.~Comm.},
 year =    2008,
 volume =  179,
 pages =   {320--329}
}

@article{Stratford2018,
 author = {Stratford, Kevin and Shire, Tom and Hanley, Kevin},
 title = {Implementation of multi-level contact detection in LAMMPS},
 year = {2018}
}

@article{Shire2020,
 author = {Shire, Tom and Hanley, Kevin J. and Stratford, Kevin},
 title = {DEM simulations of polydisperse media: efficient contact
          detection applied to investigate the quasi-static limit},
 journal = {Computational Particle Mechanics},
 year = {2020}
}

- fix srd command:

@Article{Petersen10,
 author = {M. K. Petersen, J. B. Lechman, S. J. Plimpton, G. S. Grest, P. J. in 't Veld, P. R. Schunk},
 title =   {Mesoscale Hydrodynamics via Stochastic Rotation Dynamics: Comparison with Lennard-Jones Fluid}, journal = {J.~Chem.~Phys.},
 year =    2010,
 volume =  132,
 pages =   {174106}
}

CITE-CITE-CITE-CITE-CITE-CITE-CITE-CITE-CITE-CITE-CITE-CITE-CITE

SRD info:
  SRD/big particles = 73579 420
  big particle diameter max/min = 1.0000000 1.0000000
  SRD temperature & lamda = 1.0000000 0.063245553
  SRD max distance & max velocity = 0.25298221 12.649111
  SRD grid counts: 153 153 1
  SRD grid size: request, actual (xyz) = 0.25000000, 0.25025738 0.25025738 1.0000000
  SRD per actual grid cell = 4.0557326
  SRD viscosity = 0.22929663
  big/SRD mass density ratio = 0.19661407
  # of rescaled SRD velocities = 0
  ave/max small velocity = 4.1966772 7.7276214
  ave/max big velocity = 2.1275716 5.8359099
  update every 1 steps, delay 0 steps, check yes
Step Temp f_2[8] TotEng v_pebig v_ebig Press f_2[1] f_2[2] f_2[3] f_2[4] f_2[5] f_2[6] f_2[7] f_2[8] f_2[9] f_2[10] f_2[11] f_2[12]
0    27.381112            0   0.25599398    42.234595    45.103092   0.74047865            0            0            0            0            0            0            0            0            0            0            0            0
Averages over the last 6 of 11 rows, steps 5000 to 10000:
Temp f_2[8] TotEng v_pebig v_ebig Press f_2[1] f_2[2] f_2[3] f_2[4] f_2[5] f_2[6] f_2[7] f_2[8] f_2[9] f_2[10] f_2[11] f_2[12]
2.67718 16296.7 0.241008 42.1824 42.4628 9.68944 10241.2 35.5 35.5 0 5786 70756 23409 16296.7 0.932018 0 66 0
Loop time of 24.5198 on 4 procs for 10000 steps with 73999 atoms
