LAMMPS (8 Apr 2021)
# 3d Lennard-Jones melt with tracking

units		lj
atom_style	atomic

lattice		fcc 0.8442
Lattice spacing in x,y,z = 1.6795962 1.6795962 1.6795962
region		box block 0 4 0 4 0 4
create_box	2 box
Created orthogonal box = (0.0000000 0.0000000 0.0000000) to (6.7183848 6.7183848 6.7183848)
create_atoms	2 box
Created 256 atoms
mass		1 1.0
mass            2 1.0
velocity	all create 2.0 87287 loop geom

pair_style	hybrid/overlay lj/cut 2.5 tracker
pair_coeff	* * lj/cut 1.0 1.0 2.5
pair_coeff  * * tracker 2.5

neighbor	0.3 bin
neigh_modify	every 20 delay 0 check no

fix		1 all nve
fix     2 all pair/tracker 1000 id1 id2 time/created time/broken time/total time/min 0.5
fix     3 all ave/histo 1000 1 1000 0 6 30 f_2[5] mode vector kind local file lifetime_hist.dat

dump 1 all local 1000 contact_history.dat f_2[1] f_2[2] f_2[3] f_2[4]
dump_modify 1 header no

# compute 1 all property/local patom1 patom2
# dump 2 all local 1 pairs.dat c_1[1] c_1[2]

# dump 3 all atom 1 atoms.dat

thermo		50
run 		1000 #0
  update every 20 steps, delay 0 steps, check no
Step Temp E_pair E_mol TotEng Press
0            2   -6.7733681            0   -3.7850868   -4.5535126
Averages over the last 11 of 21 rows, steps 500 to 1000:
Temp E_pair E_mol TotEng Press
1.01349 -5.30557 0 -3.79127 2.73809
Loop time of 0.310363 on 1 procs for 1000 steps with 256 atoms
