LAMMPS (15 Jun 2020)
## This script first constructs an alpha quartz structure of a given size. It then uses fix qtb to equilibrate the computational cell to the specified temperature and pressure.
variable                x_rep equal 2                                                                           #x-direction replication number
variable                y_rep equal 2                                                                           #y-direction replication number
variable                z_rep equal 2                                                                           #z-direction replication number
variable                cut_off equal 10.0                                                                      #Cut-off distance for the Buckingham term (Angstrom in metal units)
variable                pressure equal 1.03125                                                                  #Initial state pressure (bar in metal units)
variable                temperature equal 300.0                                                                 #Initial state quantum temperature (K in metal units)
variable                delta_t equal 1.0e-3                                                                    #MD timestep length (ps in metal units)
variable                damp_qtb equal 1                                                                        #1/gamma where gamma is the friction coefficient in quantum thermal bath (ps in metal units)

## This part defines units, alpha-quartz crystal, and atomic information
#General
units                   metal
dimension               3
boundary                p p p
atom_style              charge

#Lattice
lattice                 custom 1.0                         a1      4.916000 0.000000 0.000000                         a2      -2.45800 4.257381 0.000000                         a3      0.000000 0.000000 5.405400                                                 basis   0.469700 0.000000 0.000000                         basis   0.000000 0.469700 0.666667                         basis   0.530300 0.530300 0.333333                                                 basis   0.413500 0.266900 0.119100                         basis   0.266900 0.413500 0.547567                         basis   0.733100 0.146600 0.785767                         basis   0.586500 0.853400 0.214233                         basis   0.853400 0.586500 0.452433                         basis   0.146600 0.733100 0.880900                                                      #American Mineralogist 65 920 1980 (Space Group 154)
Lattice spacing in x,y,z = 7.374 4.25738 5.4054

#Computational Cell
region                  orthorhombic_unit_cell block 0 4.916000 0 8.514762 0 5.405400 units box
create_box              2 orthorhombic_unit_cell
Created orthogonal box = (0.0 0.0 0.0) to (4.916 8.514762 5.4054)
create_atoms            1 box                         basis   1 1                         basis   2 1                         basis   3 1                         basis   4 2                         basis   5 2                         basis   6 2                         basis   7 2                         basis   8 2                         basis   9 2
Created 18 atoms
replicate               2 2 2
  orthogonal box = (0.0 0.0 0.0) to (9.832 17.029524 10.8108)
  144 atoms
  replicate CPU = 0.000219584 secs

#Atomic Information
mass                    1 28.085500
mass                    2 15.999400
set                     type 1 charge +2.4
  48 settings made for charge
set                     type 2 charge -1.2
  96 settings made for charge

## This part implements the BKS pair potential with a cut-off distance for the Buckingham term. Long range Coulomb interactions are evaluated with the pppm method.
#Pair Potentials
pair_style              buck/coul/long 10
pair_coeff              1 1 0.0 1.0 0.0
pair_coeff              1 2 18003.757200 0.205205 133.538100
pair_coeff              2 2 1388.773000  0.362319 175.000000
pair_modify             shift yes
kspace_style            pppm 1.0e-4

#Neighbor style
neighbor                2.0 bin
neigh_modify            check yes every 1 delay 0 page 100000 one 2000

variable                p_damp equal 0.001*1000
fix                     scapegoat_qtb all nph iso 1.03125 1.03125 1 ptemp 300
fix                     quartz_qtb all qtb temp 300 damp 1 seed 35082 f_max 120.00 N_f 100
thermo_style            custom step temp press etotal vol lx ly lz pxx pyy pzz pxy pyz pxz
thermo                  500
run                     10000                                                                                   # 20 ps
PPPM initialization ...
  G vector (1/distance) = 0.307414
  grid = 9 15 10
  stencil order = 5
  estimated absolute RMS force accuracy = 0.000822922
  estimated relative force accuracy = 5.71487e-05
  3d grid and FFT values/proc = 5984 1350
  update every 1 steps, delay 0 steps, check yes
Step Temp Press TotEng Volume Lx Ly Lz Pxx Pyy Pzz Pxy Pyz Pxz
0            0   -34025.794   -2793.6041    1810.0985        9.832    17.029524      10.8108   -37478.502   -37477.413   -27121.466 -1.3649088e-10    1.3388978 5.8209479e-10
Averages over the last 11 of 21 rows, steps 5000 to 10000:
Temp Press TotEng Volume Lx Ly Lz Pxx Pyy Pzz Pxy Pyz Pxz
517.947 2915.42 -2777.79 1868.84 9.93716 17.2117 10.9264 -2119.43 6306.7 4559 234.483 615.979 2950.9
Loop time of 8.86837 on 1 procs for 10000 steps with 144 atoms

unfix                   quartz_qtb
unfix                   scapegoat_qtb
