LAMMPS (24 Dec 2020)
# created by fftool

units real
boundary p p p

atom_style full
bond_style harmonic
angle_style harmonic
special_bonds lj/coul 0.0 0.0 0.5

read_data data.1.lmp
Reading data file ...
  orthogonal box = (-13.443762 -13.443762 -13.443762) to (13.443762 13.443762 13.443762)
  reading atoms ...
  1089 atoms
  scanning bonds ...
  scanning angles ...
  reading bonds ...
  728 bonds
  reading angles ...
  388 angles
Finding 1-2 1-3 1-4 neighbors ...
     8 = max # of 1-2 neighbors
     7 = max # of 1-3 neighbors
     7 = max # of 1-4 neighbors
     8 = max # of special neighbors
# read_restart restart.*.lmp
# reset_timestep 0

pair_style hybrid lj/cut/coul/long 10.0 10.0 lj/cut/coul/long/soft 1 0.5 10.0 10.0 10.0
pair_modify tail yes
kspace_style pppm 1.0e-4

pair_coeff    1    1  lj/cut/coul/long    0.0660   3.5000  # CF-C CF-C
pair_coeff    1    2  lj/cut/coul/long    0.0445   2.9580  # CF-C HD-
pair_coeff    1    3  lj/cut/coul/long    0.0591   3.2133  # CF-C F-D
pair_coeff    1    4  lj/cut/coul/long    0.0000   1.8708  # CF-C Hw
pair_coeff    1    5  lj/cut/coul/long    0.1013   3.3286  # CF-C Ow
pair_coeff    2    2  lj/cut/coul/long    0.0300   2.5000  # HD- HD-
pair_coeff    2    3  lj/cut/coul/long    0.0399   2.7157  # HD- F-D
pair_coeff    2    4  lj/cut/coul/long/soft    0.0000   1.5811  0.0  # HD- Hw
pair_coeff    2    5  lj/cut/coul/long/soft    0.0683   2.8131  0.0  # HD- Ow
pair_coeff    3    3  lj/cut/coul/long    0.0530   2.9500  # F-D F-D
pair_coeff    3    4  lj/cut/coul/long/soft    0.0000   1.7176  1.0  # F-D Hw
pair_coeff    3    5  lj/cut/coul/long/soft    0.0908   3.0559  1.0  # F-D Ow
pair_coeff    4    4  lj/cut/coul/long    0.0000   1.0000  # Hw Hw
pair_coeff    4    5  lj/cut/coul/long    0.0000   1.7792  # Hw Ow
pair_coeff    5    5  lj/cut/coul/long    0.1554   3.1655  # Ow Ow

variable TK equal 300.0
variable PBAR equal 1.0

neighbor 2.0 bin

timestep 1.0

velocity all create 300 12345

fix SHAKE all shake 0.0001 20 0 b 3 a 4
       0 = # of size 2 clusters
       0 = # of size 3 clusters
       0 = # of size 4 clusters
     360 = # of frozen angles
  find clusters CPU = 0.001 seconds

fix NPT all npt temp 300 300 100 iso 1 1 500

thermo_style custom step cpu etotal ke pe evdwl ecoul elong temp press vol density
thermo 1000

run 200000
PPPM initialization ...
  G vector (1/distance) = 0.27021277
  grid = 15 15 15
  stencil order = 5
  estimated absolute RMS force accuracy = 0.016919794
  estimated relative force accuracy = 5.0953457e-05
  3d grid and FFT values/proc = 2352 450
  update every 1 steps, delay 10 steps, check yes
Step CPU TotEng KinEng PotEng E_vdwl E_coul E_long Temp Press Volume Density
0            0    796.45148     972.9364   -176.48492   -201.60386    19459.424   -19434.493    448.35165    1111.1116    19438.038   0.56189244
Averages over the last 101 of 201 rows, steps 100000 to 200000:
TotEng KinEng PotEng E_vdwl E_coul E_long Temp Press Volume Density
-3363.57 647.927 -4011.5 756.825 14888.4 -19660.1 298.58 19.658 10870.8 1.00491
Loop time of 581.165 on 12 procs for 200000 steps with 1089 atoms

reset_timestep 0
unfix NPT
fix NVT all nvt temp 300 300 100

variable dlambda equal -1.0
variable minusdl equal  1.0
variable dqC equal  (0.48+0.24)*v_dlambda
variable dqH equal -0.06*v_dlambda
variable dqF equal -0.12*v_dlambda

compute FEP all fep 300     pair lj/cut/coul/long/soft lambda 2 4*5 v_minusdl     pair lj/cut/coul/long/soft lambda 3 4*5 v_dlambda     atom charge 1 v_dqC     atom charge 2 v_dqH     atom charge 3 v_dqF

fix FEP all ave/time 1 1 100 c_FEP[1] c_FEP[2] file bar10.fep

dump TRAJ all custom 5000 dump.lammpstrj id mol type element xu yu zu
dump_modify TRAJ element C H F H O

run 500000
PPPM initialization ...
  G vector (1/distance) = 0.26835398
  grid = 12 12 12
  stencil order = 5
  estimated absolute RMS force accuracy = 0.025279937
  estimated relative force accuracy = 7.6129779e-05
  3d grid and FFT values/proc = 1859 144
FEP settings ...
  temperature = 300.000000
  tail no
  lj/cut/coul/long/soft lambda 2-2 4-5
  lj/cut/coul/long/soft lambda 3-3 4-5
  1-1 charge
  2-2 charge
  3-3 charge
  update every 1 steps, delay 10 steps, check yes
Step CPU TotEng KinEng PotEng E_vdwl E_coul E_long Temp Press Volume Density
0            0   -3429.7922    650.20138   -4079.9936    778.52437    14663.799   -19526.253    299.62787    652.44739    10639.538    1.0265565
Averages over the last 251 of 501 rows, steps 250000 to 500000:
TotEng KinEng PotEng E_vdwl E_coul E_long Temp Press Volume Density
-3381 651.142 -4032.15 775.273 14710.7 -19525.4 300.061 537.914 10639.5 1.02656
Loop time of 1293.13 on 12 procs for 500000 steps with 1089 atoms

# write_restart restart.*.lmp
write_data data.*.lmp
System init for write_data ...
PPPM initialization ...
  G vector (1/distance) = 0.26835398
  grid = 12 12 12
  stencil order = 5
  estimated absolute RMS force accuracy = 0.025279937
  estimated relative force accuracy = 7.6129779e-05
  3d grid and FFT values/proc = 1859 144
  update every 1 steps, delay 10 steps, check yes
