LAMMPS (8 Apr 2021)
# Coarse-Grained SPC/E Water

variable T   equal 300.0
variable rc  equal   9.0
variable rcD equal  10.0

units		 real
boundary     p p p
atom_style   atomic
dimension    3
newton       on
comm_modify  vel yes

read_data    cg_spce.data
Reading data file ...
  orthogonal box = (0.0000000 0.0000000 0.0000000) to (40.310000 40.310000 40.310000)
  reading atoms ...
  2180 atoms

pair_style	 hybrid/overlay table linear 1000 dpd/ext/tstat 300 300 9 385262

pair_coeff   1 1 table cg_spce_table.pot VOTCA 9
  Should only be flagged at inflection points (../pair_table.cpp:461)
pair_coeff   1 1 dpd/ext/tstat 20.0 10.0 0.5 0.5 10

timestep    1.0
run_style   verlet

velocity all create 300 68768932

thermo_style custom step time temp press
thermo       10

fix 1 all    nve

run	     2000
  update every 1 steps, delay 10 steps, check yes
Step Time Temp Press
0            0          300    7368.7186
Averages over the last 101 of 201 rows, steps 1000 to 2000:
Temp Press
298.84 7813.84
Loop time of 91.2059 on 1 procs for 2000 steps with 2180 atoms
