LAMMPS (2 Jun 2020)
# 3d EAM surface for global HD

# nearest neighbor distance = a * sqrt(2)/2 = 2.77 Angs for Pt with a = 3.92
# hop event on (100) surface is same distance
# exchange event is 2 atoms moving same distance

variable        Tequil index 500.0
variable        Vmax index 0.5
variable        qfactor index 0.3
variable        cutbond index 3.2
variable        cutevent index 1.1
variable        steps index 100000
variable        nevent index 1000
variable        zoom index 1.8
variable        seed index 826626413
variable        tol index 1.0e-15

units           metal
atom_style	atomic
atom_modify     map array
boundary        p p p

lattice		fcc 3.92
Lattice spacing in x,y,z = 3.92 3.92 3.92
region		box block 0 6 0 6 0 4
create_box	3 box
Created orthogonal box = (0.0 0.0 0.0) to (23.52 23.52 15.68)
create_atoms	1 box
Created 576 atoms

mass            * 1.0

change_box      all z final -0.1 5.0 boundary p p f
  orthogonal box = (0.0 0.0 -0.392) to (23.52 23.52 19.6)
create_atoms    2 single 3.5 3.5 4
Created 1 atoms

# define frozen substrate and mobile atoms

group           adatom type 2
1 atoms in group adatom
region          base block INF INF INF INF 0 1.8
set             region base type 3
  288 settings made for typegroup           base type 3
288 atoms in group base
group           mobile type 1 2
289 atoms in group mobile

# pair style

pair_style	eam/alloy
pair_coeff	* * ptvoterlammps.eam Pt Pt Pt

neighbor	0.5 bin
neigh_modify    every 1 delay 5 check yes

fix		1 mobile nve
fix		2 mobile langevin 500.0 500.0 1.0 826626413 zero yes

timestep	0.005

compute         tmobile mobile temp

thermo		100
thermo_modify   temp tmobile

# thermal equilibration

run             1000
  update every 1 steps, delay 5 steps, check yes
Step Temp E_pair E_mol TotEng Press
0            0   -3213.9136            0   -3213.9136   -51843.125
Averages over the last 6 of 11 rows, steps 500 to 1000:
Temp E_pair E_mol TotEng Press
465.856 -3199.18 0 -3181.84 -33144.7
Loop time of 0.195228 on 4 procs for 1000 steps with 577 atoms

reset_timestep  0

# pin base so will not move during quenches

fix             freeze base setforce 0.0 0.0 0.0

# event detection

compute         event all event/displace 1.1

# hyper/global

fix             HG mobile hyper/global 3.2 0.3 0.5 500.0

# thermo output

thermo_style    custom step temp pe f_HG f_HG[*]

thermo_modify   lost ignore
thermo_modify   temp tmobile

thermo          1000

# dump output options

region          substrate block INF INF INF INF 1.8 3.8
region          adatoms block INF INF INF INF 3.8 INF
variable        acolor atom rmask(base)+2*rmask(substrate)+3*rmask(adatoms)

dump		1 all image 1000000 global.*.jpg v_acolor type 		zoom 1.8 adiam 2.5 view 0.0 0.0 up 0 1 0 axes yes 0.9 0.01
dump_modify	1 pad 6 amap 1 3 sa 1 3 blue red green

# run

hyper           100000 1000 HG event min 1.0e-15 1.0e-15 1000 1000 dump 1
  update every 1 steps, delay 0 steps, check yes
Step Temp PotEng f_HG f_HG[1] f_HG[2] f_HG[3] f_HG[4] f_HG[5] f_HG[6] f_HG[7] f_HG[8] f_HG[9] f_HG[10] f_HG[11] f_HG[12]
0    476.87852   -3197.3442            0            0            0            0            0            0            0            0            0            0            0            0            0
Loop time of 0.016781 on 4 procs for 53 steps with 577 atoms

Step Temp PotEng f_HG f_HG[1] f_HG[2] f_HG[3] f_HG[4] f_HG[5] f_HG[6] f_HG[7] f_HG[8] f_HG[9] f_HG[10] f_HG[11] f_HG[12]
0    476.87852   -3197.3442   0.33187212    2213.7063   0.17396269          129          131    5.9965398            0            0            0    3.3552688            0            0            0
Loop time of 0.145301 on 4 procs for 1000 steps with 577 atoms

Step Temp PotEng f_HG f_HG[1] f_HG[2] f_HG[3] f_HG[4] f_HG[5] f_HG[6] f_HG[7] f_HG[8] f_HG[9] f_HG[10] f_HG[11] f_HG[12]
1000    487.34979   -3198.3697   0.19401776    90.283981   0.23468448          543          548    5.9965398        0.165            0            0    3.9974111    6134.6092            0            0
Loop time of 0.0201806 on 4 procs for 59 steps with 577 atoms

Step Temp PotEng f_HG f_HG[1] f_HG[2] f_HG[3] f_HG[4] f_HG[5] f_HG[6] f_HG[7] f_HG[8] f_HG[9] f_HG[10] f_HG[11] f_HG[12]
1000    487.34979   -3198.3697   0.19401776    90.283981   0.23468448          543          548    5.9965398        0.165            0            0    3.9974111    6134.6092            0            0
Loop time of 0.147897 on 4 procs for 1000 steps with 577 atoms

Step Temp PotEng f_HG f_HG[1] f_HG[2] f_HG[3] f_HG[4] f_HG[5] f_HG[6] f_HG[7] f_HG[8] f_HG[9] f_HG[10] f_HG[11] f_HG[12]
2000    522.93873   -3197.4748    0.1540961    35.745266   0.24952495          120          131    5.9965398       0.1645            0            0    4.0370436    10213.644            0            0
Loop time of 0.0195917 on 4 procs for 58 steps with 577 atoms

Step Temp PotEng f_HG f_HG[1] f_HG[2] f_HG[3] f_HG[4] f_HG[5] f_HG[6] f_HG[7] f_HG[8] f_HG[9] f_HG[10] f_HG[11] f_HG[12]
2000    522.93873   -3197.4748    0.1540961    35.745266   0.24952495          120          131    5.9965398       0.1645            0            0    4.0370436    10213.644            0            0
Loop time of 0.147192 on 4 procs for 1000 steps with 577 atoms

Step Temp PotEng f_HG f_HG[1] f_HG[2] f_HG[3] f_HG[4] f_HG[5] f_HG[6] f_HG[7] f_HG[8] f_HG[9] f_HG[10] f_HG[11] f_HG[12]
3000     485.3853   -3198.0446  0.081070283    6.5637429   0.27460399          120          131    5.9965398        0.145            0            0    4.0370436    13331.739            0            0
Loop time of 0.0219681 on 4 procs for 61 steps with 577 atoms

Step Temp PotEng f_HG f_HG[1] f_HG[2] f_HG[3] f_HG[4] f_HG[5] f_HG[6] f_HG[7] f_HG[8] f_HG[9] f_HG[10] f_HG[11] f_HG[12]
3000     485.3853   -3198.0446  0.081070283    6.5637429   0.27460399          120          131    5.9965398        0.145            0            0    4.0370436    13331.739            0            0
Loop time of 0.146592 on 4 procs for 1000 steps with 577 atoms

Step Temp PotEng f_HG f_HG[1] f_HG[2] f_HG[3] f_HG[4] f_HG[5] f_HG[6] f_HG[7] f_HG[8] f_HG[9] f_HG[10] f_HG[11] f_HG[12]
4000    518.88739   -3198.6269            0            1   0.33014438          548          555    5.9965398       0.1715            0            0    4.0370436    14346.606            0            0
Loop time of 0.0203461 on 4 procs for 57 steps with 577 atoms

Step Temp PotEng f_HG f_HG[1] f_HG[2] f_HG[3] f_HG[4] f_HG[5] f_HG[6] f_HG[7] f_HG[8] f_HG[9] f_HG[10] f_HG[11] f_HG[12]
4000    518.88739   -3198.6269            0            1   0.33014438          548          555    5.9965398       0.1715            0            0    4.0370436    14346.606            0            0
Loop time of 0.146422 on 4 procs for 1000 steps with 577 atoms

Step Temp PotEng f_HG f_HG[1] f_HG[2] f_HG[3] f_HG[4] f_HG[5] f_HG[6] f_HG[7] f_HG[8] f_HG[9] f_HG[10] f_HG[11] f_HG[12]
5000    514.60377   -3197.5544  0.049185081     3.131578   0.28486257          283          288    5.9965398       0.2044            0            0    4.0370436    15492.612            0            0
Loop time of 0.0185522 on 4 procs for 52 steps with 577 atoms

Step Temp PotEng f_HG f_HG[1] f_HG[2] f_HG[3] f_HG[4] f_HG[5] f_HG[6] f_HG[7] f_HG[8] f_HG[9] f_HG[10] f_HG[11] f_HG[12]
5000    514.60377   -3197.5544  0.049185081     3.131578   0.28486257          283          288    5.9965398       0.2044            0            0    4.0370436    15492.612            0            0
Loop time of 0.152313 on 4 procs for 1000 steps with 577 atoms

Step Temp PotEng f_HG f_HG[1] f_HG[2] f_HG[3] f_HG[4] f_HG[5] f_HG[6] f_HG[7] f_HG[8] f_HG[9] f_HG[10] f_HG[11] f_HG[12]
6000    506.58554   -3198.6556  0.030839451    2.0457268   0.29060093          543          544    5.9965398   0.19533333            0            0    4.0370436    19375.801            0            0
Loop time of 0.0202745 on 4 procs for 59 steps with 577 atoms

Step Temp PotEng f_HG f_HG[1] f_HG[2] f_HG[3] f_HG[4] f_HG[5] f_HG[6] f_HG[7] f_HG[8] f_HG[9] f_HG[10] f_HG[11] f_HG[12]
6000    506.58554   -3198.6556  0.030839451    2.0457268   0.29060093          543          544    5.9965398   0.19533333            0            0    4.0370436    19375.801            0            0
Loop time of 0.146604 on 4 procs for 1000 steps with 577 atoms

Step Temp PotEng f_HG f_HG[1] f_HG[2] f_HG[3] f_HG[4] f_HG[5] f_HG[6] f_HG[7] f_HG[8] f_HG[9] f_HG[10] f_HG[11] f_HG[12]
7000    501.46891   -3198.8168   0.19756174    98.024002   0.23332142          404          411    5.9965398   0.19728571            0            0    4.0370436    20874.431            0            0
Loop time of 0.0208374 on 4 procs for 61 steps with 577 atoms

Step Temp PotEng f_HG f_HG[1] f_HG[2] f_HG[3] f_HG[4] f_HG[5] f_HG[6] f_HG[7] f_HG[8] f_HG[9] f_HG[10] f_HG[11] f_HG[12]
7000    501.46891   -3198.8168   0.19756174    98.024002   0.23332142          404          411    5.9965398   0.19728571            0            0    4.0370436    20874.431            0            0
Loop time of 0.14606 on 4 procs for 1000 steps with 577 atoms

Step Temp PotEng f_HG f_HG[1] f_HG[2] f_HG[3] f_HG[4] f_HG[5] f_HG[6] f_HG[7] f_HG[8] f_HG[9] f_HG[10] f_HG[11] f_HG[12]
8000    554.51151   -3197.0193   0.14419359    28.405722   0.25307144          566          567    5.9965398     0.191125            0            0    4.0370436    23877.855            0            0
Loop time of 0.0208338 on 4 procs for 60 steps with 577 atoms

Step Temp PotEng f_HG f_HG[1] f_HG[2] f_HG[3] f_HG[4] f_HG[5] f_HG[6] f_HG[7] f_HG[8] f_HG[9] f_HG[10] f_HG[11] f_HG[12]
8000    554.51151   -3197.0193   0.14419359    28.405722   0.25307144          566          567    5.9965398     0.191125            0            0    4.0370436    23877.855            0            0
Loop time of 0.146869 on 4 procs for 1000 steps with 577 atoms

Step Temp PotEng f_HG f_HG[1] f_HG[2] f_HG[3] f_HG[4] f_HG[5] f_HG[6] f_HG[7] f_HG[8] f_HG[9] f_HG[10] f_HG[11] f_HG[12]
9000     463.4842    -3196.912   0.21724312    154.77893   0.22560194          268          279    5.9965398   0.19755556            0            0    4.0370436    25828.393            0            0
Loop time of 0.020185 on 4 procs for 58 steps with 577 atoms

Step Temp PotEng f_HG f_HG[1] f_HG[2] f_HG[3] f_HG[4] f_HG[5] f_HG[6] f_HG[7] f_HG[8] f_HG[9] f_HG[10] f_HG[11] f_HG[12]
9000     463.4842    -3196.912   0.21724312    154.77893   0.22560194          268          279    5.9965398   0.19755556            0            0    4.0370436    25828.393            0            0
Loop time of 0.145414 on 4 procs for 1000 steps with 577 atoms

Step Temp PotEng f_HG f_HG[1] f_HG[2] f_HG[3] f_HG[4] f_HG[5] f_HG[6] f_HG[7] f_HG[8] f_HG[9] f_HG[10] f_HG[11] f_HG[12]
10000    522.84322   -3198.0918   0.14965464    32.244128   0.25112181          400          411    5.9965398       0.1939            0            0    4.0593269    33904.005            0            0
Loop time of 0.0188997 on 4 procs for 54 steps with 577 atoms

Step Temp PotEng f_HG f_HG[1] f_HG[2] f_HG[3] f_HG[4] f_HG[5] f_HG[6] f_HG[7] f_HG[8] f_HG[9] f_HG[10] f_HG[11] f_HG[12]
10000    522.84322   -3198.0918   0.14965464    32.244128   0.25112181          400          411    5.9965398       0.1939            0            0    4.0593269    33904.005            0            0
Loop time of 0.147122 on 4 procs for 1000 steps with 577 atoms

Step Temp PotEng f_HG f_HG[1] f_HG[2] f_HG[3] f_HG[4] f_HG[5] f_HG[6] f_HG[7] f_HG[8] f_HG[9] f_HG[10] f_HG[11] f_HG[12]
11000    496.84666    -3197.603  0.099165645    9.9895191   0.26860786          566          567    5.9965398   0.18272727            0            0    4.0593269    42381.675            0            0
Loop time of 0.01815 on 4 procs for 52 steps with 577 atoms

Step Temp PotEng f_HG f_HG[1] f_HG[2] f_HG[3] f_HG[4] f_HG[5] f_HG[6] f_HG[7] f_HG[8] f_HG[9] f_HG[10] f_HG[11] f_HG[12]
11000    496.84666    -3197.603  0.099165645    9.9895191   0.26860786          566          567    5.9965398   0.18272727            0            0    4.0593269    42381.675            0            0
Loop time of 0.149886 on 4 procs for 1000 steps with 577 atoms

Step Temp PotEng f_HG f_HG[1] f_HG[2] f_HG[3] f_HG[4] f_HG[5] f_HG[6] f_HG[7] f_HG[8] f_HG[9] f_HG[10] f_HG[11] f_HG[12]
12000    505.35386   -3197.4499            0            1    0.3380327          543          544    5.9965398       0.1845            0            0    4.0593269     45849.92            0            0
Loop time of 0.021822 on 4 procs for 62 steps with 577 atoms

Step Temp PotEng f_HG f_HG[1] f_HG[2] f_HG[3] f_HG[4] f_HG[5] f_HG[6] f_HG[7] f_HG[8] f_HG[9] f_HG[10] f_HG[11] f_HG[12]
12000    505.35386   -3197.4499            0            1    0.3380327          543          544    5.9965398       0.1845            0            0    4.0593269     45849.92            0            0
Loop time of 0.149809 on 4 procs for 1000 steps with 577 atoms

Step Temp PotEng f_HG f_HG[1] f_HG[2] f_HG[3] f_HG[4] f_HG[5] f_HG[6] f_HG[7] f_HG[8] f_HG[9] f_HG[10] f_HG[11] f_HG[12]
13000     480.8416   -3198.2763     0.309288    1310.6367    0.1852786          400          411    5.9965398   0.18761538            0            0    4.0593269    47530.263            0            0
Loop time of 0.0209084 on 4 procs for 59 steps with 577 atoms

Step Temp PotEng f_HG f_HG[1] f_HG[2] f_HG[3] f_HG[4] f_HG[5] f_HG[6] f_HG[7] f_HG[8] f_HG[9] f_HG[10] f_HG[11] f_HG[12]
13000     480.8416   -3198.2763     0.309288    1310.6367    0.1852786          400          411    5.9965398   0.18761538            0            0    4.0593269    47530.263            0            0
Loop time of 0.145794 on 4 procs for 1000 steps with 577 atoms

Step Temp PotEng f_HG f_HG[1] f_HG[2] f_HG[3] f_HG[4] f_HG[5] f_HG[6] f_HG[7] f_HG[8] f_HG[9] f_HG[10] f_HG[11] f_HG[12]
14000    500.22368   -3198.4114   0.29111143    859.54923   0.19390705          283          276    5.9965398   0.18785714            0            0    4.0593269    53252.052            0            0
Loop time of 0.0188122 on 4 procs for 55 steps with 577 atoms

Step Temp PotEng f_HG f_HG[1] f_HG[2] f_HG[3] f_HG[4] f_HG[5] f_HG[6] f_HG[7] f_HG[8] f_HG[9] f_HG[10] f_HG[11] f_HG[12]
14000    500.22368   -3198.4114   0.29111143    859.54923   0.19390705          283          276    5.9965398   0.18785714            0            0    4.0593269    53252.052            0            0
Loop time of 0.147841 on 4 procs for 1000 steps with 577 atoms

Step Temp PotEng f_HG f_HG[1] f_HG[2] f_HG[3] f_HG[4] f_HG[5] f_HG[6] f_HG[7] f_HG[8] f_HG[9] f_HG[10] f_HG[11] f_HG[12]
15000    538.71132   -3198.8617    0.3801243    6783.9082   0.14689325           44           77    5.9965398   0.18586667            0            0    4.0593269    57737.583            0            0
Loop time of 0.0198176 on 4 procs for 57 steps with 577 atoms

Step Temp PotEng f_HG f_HG[1] f_HG[2] f_HG[3] f_HG[4] f_HG[5] f_HG[6] f_HG[7] f_HG[8] f_HG[9] f_HG[10] f_HG[11] f_HG[12]
15000    538.71132   -3198.8617    0.3801243    6783.9082   0.14689325           44           77    5.9965398   0.18586667            0            0    4.0593269    57737.583            0            0
Loop time of 0.146735 on 4 procs for 1000 steps with 577 atoms

Step Temp PotEng f_HG f_HG[1] f_HG[2] f_HG[3] f_HG[4] f_HG[5] f_HG[6] f_HG[7] f_HG[8] f_HG[9] f_HG[10] f_HG[11] f_HG[12]
16000    543.33859   -3199.9956   0.19111474    84.401396   0.23579514          132          139    5.9965398     0.181125            0            0    4.0593269    63865.395            0            0
Loop time of 0.0192626 on 4 procs for 55 steps with 577 atoms

Step Temp PotEng f_HG f_HG[1] f_HG[2] f_HG[3] f_HG[4] f_HG[5] f_HG[6] f_HG[7] f_HG[8] f_HG[9] f_HG[10] f_HG[11] f_HG[12]
16000    543.33859   -3199.9956   0.19111474    84.401396   0.23579514          132          139    5.9965398     0.181125            0            0    4.0593269    63865.395            0            0
Loop time of 0.149352 on 4 procs for 1000 steps with 577 atoms

Step Temp PotEng f_HG f_HG[1] f_HG[2] f_HG[3] f_HG[4] f_HG[5] f_HG[6] f_HG[7] f_HG[8] f_HG[9] f_HG[10] f_HG[11] f_HG[12]
17000    490.07066   -3199.3253            0            1    0.5532913          542          548    5.9965398   0.18670588 0.00011764706            0    4.3314109     65817.26            0            0
Loop time of 0.0210718 on 4 procs for 62 steps with 577 atoms

Step Temp PotEng f_HG f_HG[1] f_HG[2] f_HG[3] f_HG[4] f_HG[5] f_HG[6] f_HG[7] f_HG[8] f_HG[9] f_HG[10] f_HG[11] f_HG[12]
17000    490.07066   -3199.3253            0            1   0.37750286          546          577    5.9965398   0.18670588 0.00011764706    2.3326658    4.3314109     65817.26            1            2
Loop time of 0.1473 on 4 procs for 1000 steps with 577 atoms

Step Temp PotEng f_HG f_HG[1] f_HG[2] f_HG[3] f_HG[4] f_HG[5] f_HG[6] f_HG[7] f_HG[8] f_HG[9] f_HG[10] f_HG[11] f_HG[12]
18000    505.37149   -3196.5764   0.05904738    3.9370481   0.28172943          577          559    5.9965398       0.1985 0.00011111111    2.3326658    4.3314109    66073.732            1            2
Loop time of 0.0193232 on 4 procs for 54 steps with 577 atoms

Step Temp PotEng f_HG f_HG[1] f_HG[2] f_HG[3] f_HG[4] f_HG[5] f_HG[6] f_HG[7] f_HG[8] f_HG[9] f_HG[10] f_HG[11] f_HG[12]
18000    505.37149   -3196.5764   0.05904738    3.9370481   0.28172943          577          559    5.9965398       0.1985 0.00011111111    2.3326658    4.3314109    66073.732            1            2
Loop time of 0.151556 on 4 procs for 1000 steps with 577 atoms

Step Temp PotEng f_HG f_HG[1] f_HG[2] f_HG[3] f_HG[4] f_HG[5] f_HG[6] f_HG[7] f_HG[8] f_HG[9] f_HG[10] f_HG[11] f_HG[12]
19000    503.43264   -3199.2564   0.34097427    2734.4218   0.16918815          120          131    5.9965398   0.20194737 0.00010526316    2.3326658    4.3314109    67732.221            1            2
Loop time of 0.0205157 on 4 procs for 51 steps with 577 atoms

Loop time of 0.156098 on 4 procs for 1000 steps with 577 atoms

Loop time of 0.0182987 on 4 procs for 53 steps with 577 atoms

Loop time of 0.154307 on 4 procs for 1000 steps with 577 atoms

Loop time of 0.0207435 on 4 procs for 58 steps with 577 atoms

Loop time of 0.157122 on 4 procs for 1000 steps with 577 atoms

Loop time of 0.0203064 on 4 procs for 58 steps with 577 atoms

Loop time of 0.174749 on 4 procs for 1000 steps with 577 atoms

Loop time of 0.0211805 on 4 procs for 61 steps with 577 atoms

Loop time of 0.153472 on 4 procs for 1000 steps with 577 atoms

Loop time of 0.020292 on 4 procs for 58 steps with 577 atoms

Loop time of 0.148144 on 4 procs for 1000 steps with 577 atoms

Loop time of 0.0205369 on 4 procs for 59 steps with 577 atoms

Loop time of 0.14674 on 4 procs for 1000 steps with 577 atoms

Loop time of 0.0185652 on 4 procs for 53 steps with 577 atoms

Loop time of 0.14728 on 4 procs for 1000 steps with 577 atoms

Loop time of 0.0191085 on 4 procs for 56 steps with 577 atoms

Loop time of 0.146811 on 4 procs for 1000 steps with 577 atoms

Loop time of 0.0211228 on 4 procs for 60 steps with 577 atoms

Loop time of 0.149433 on 4 procs for 1000 steps with 577 atoms

Loop time of 0.0191249 on 4 procs for 53 steps with 577 atoms

Loop time of 0.145204 on 4 procs for 1000 steps with 577 atoms

Loop time of 0.0197849 on 4 procs for 57 steps with 577 atoms

Loop time of 0.149046 on 4 procs for 1000 steps with 577 atoms

Loop time of 0.0194628 on 4 procs for 53 steps with 577 atoms

Loop time of 0.146647 on 4 procs for 1000 steps with 577 atoms

Loop time of 0.0189477 on 4 procs for 53 steps with 577 atoms

Loop time of 0.14777 on 4 procs for 1000 steps with 577 atoms

Loop time of 0.0184236 on 4 procs for 52 steps with 577 atoms

Loop time of 0.147566 on 4 procs for 1000 steps with 577 atoms

Loop time of 0.0189959 on 4 procs for 53 steps with 577 atoms

Loop time of 0.150541 on 4 procs for 1000 steps with 577 atoms

Loop time of 0.018761 on 4 procs for 53 steps with 577 atoms

Loop time of 0.152818 on 4 procs for 1000 steps with 577 atoms

Loop time of 0.0188267 on 4 procs for 54 steps with 577 atoms

Loop time of 0.146616 on 4 procs for 1000 steps with 577 atoms

Loop time of 0.020471 on 4 procs for 59 steps with 577 atoms

Loop time of 0.147942 on 4 procs for 1000 steps with 577 atoms

Loop time of 0.0191819 on 4 procs for 54 steps with 577 atoms

Loop time of 0.147371 on 4 procs for 1000 steps with 577 atoms

Loop time of 0.0177755 on 4 procs for 52 steps with 577 atoms

Loop time of 0.145757 on 4 procs for 1000 steps with 577 atoms

Loop time of 0.0190914 on 4 procs for 54 steps with 577 atoms

Loop time of 0.148949 on 4 procs for 1000 steps with 577 atoms

Loop time of 0.0214614 on 4 procs for 61 steps with 577 atoms

Loop time of 0.147446 on 4 procs for 1000 steps with 577 atoms

Loop time of 0.020681 on 4 procs for 59 steps with 577 atoms

Loop time of 0.145577 on 4 procs for 1000 steps with 577 atoms

Loop time of 0.0196458 on 4 procs for 57 steps with 577 atoms

Loop time of 0.149024 on 4 procs for 1000 steps with 577 atoms

Loop time of 0.0206496 on 4 procs for 59 steps with 577 atoms

Loop time of 0.147292 on 4 procs for 1000 steps with 577 atoms

Loop time of 0.0189967 on 4 procs for 54 steps with 577 atoms

Loop time of 0.146994 on 4 procs for 1000 steps with 577 atoms

Loop time of 0.0192491 on 4 procs for 54 steps with 577 atoms

Loop time of 0.150082 on 4 procs for 1000 steps with 577 atoms

Loop time of 0.0192085 on 4 procs for 53 steps with 577 atoms

Loop time of 0.147438 on 4 procs for 1000 steps with 577 atoms

Loop time of 0.0201835 on 4 procs for 60 steps with 577 atoms

Loop time of 0.151182 on 4 procs for 1000 steps with 577 atoms

Loop time of 0.0202584 on 4 procs for 54 steps with 577 atoms

Loop time of 0.146241 on 4 procs for 1000 steps with 577 atoms

Loop time of 0.0221142 on 4 procs for 63 steps with 577 atoms

Loop time of 0.14753 on 4 procs for 1000 steps with 577 atoms

Loop time of 0.0181563 on 4 procs for 51 steps with 577 atoms

Loop time of 0.146685 on 4 procs for 1000 steps with 577 atoms

Loop time of 0.0245662 on 4 procs for 52 steps with 577 atoms

Loop time of 0.168646 on 4 procs for 1000 steps with 577 atoms

Loop time of 0.0190916 on 4 procs for 53 steps with 577 atoms

Loop time of 0.147166 on 4 procs for 1000 steps with 577 atoms

Loop time of 0.0190244 on 4 procs for 53 steps with 577 atoms

Loop time of 0.145777 on 4 procs for 1000 steps with 577 atoms

Loop time of 0.021274 on 4 procs for 61 steps with 577 atoms

Loop time of 0.149004 on 4 procs for 1000 steps with 577 atoms

Loop time of 0.019273 on 4 procs for 55 steps with 577 atoms

Loop time of 0.146342 on 4 procs for 1000 steps with 577 atoms

Loop time of 0.0195522 on 4 procs for 56 steps with 577 atoms

Loop time of 0.149326 on 4 procs for 1000 steps with 577 atoms

Loop time of 0.0206398 on 4 procs for 58 steps with 577 atoms

Loop time of 0.14619 on 4 procs for 1000 steps with 577 atoms

Loop time of 0.0187398 on 4 procs for 52 steps with 577 atoms

Loop time of 0.148527 on 4 procs for 1000 steps with 577 atoms

Loop time of 0.0185421 on 4 procs for 53 steps with 577 atoms

Loop time of 0.146228 on 4 procs for 1000 steps with 577 atoms

Loop time of 0.0195987 on 4 procs for 53 steps with 577 atoms

Loop time of 0.148492 on 4 procs for 1000 steps with 577 atoms

Loop time of 0.020478 on 4 procs for 55 steps with 577 atoms

Loop time of 0.146232 on 4 procs for 1000 steps with 577 atoms

Loop time of 0.0210125 on 4 procs for 61 steps with 577 atoms

Loop time of 0.155832 on 4 procs for 1000 steps with 577 atoms

Loop time of 0.0204544 on 4 procs for 53 steps with 577 atoms

Loop time of 0.14987 on 4 procs for 1000 steps with 577 atoms

Loop time of 0.0217812 on 4 procs for 61 steps with 577 atoms

Loop time of 0.147202 on 4 procs for 1000 steps with 577 atoms

Loop time of 0.0205493 on 4 procs for 58 steps with 577 atoms

Loop time of 0.146892 on 4 procs for 1000 steps with 577 atoms

Loop time of 0.0191221 on 4 procs for 53 steps with 577 atoms

Loop time of 0.146714 on 4 procs for 1000 steps with 577 atoms

Loop time of 0.0185863 on 4 procs for 51 steps with 577 atoms

Loop time of 0.146795 on 4 procs for 1000 steps with 577 atoms

Loop time of 0.0192543 on 4 procs for 54 steps with 577 atoms

Loop time of 0.147705 on 4 procs for 1000 steps with 577 atoms

Loop time of 0.0190155 on 4 procs for 54 steps with 577 atoms

Loop time of 0.146516 on 4 procs for 1000 steps with 577 atoms

Loop time of 0.0187534 on 4 procs for 54 steps with 577 atoms

Loop time of 0.146056 on 4 procs for 1000 steps with 577 atoms

Loop time of 0.0185455 on 4 procs for 53 steps with 577 atoms

Loop time of 0.147198 on 4 procs for 1000 steps with 577 atoms

Loop time of 0.0186561 on 4 procs for 53 steps with 577 atoms

Loop time of 0.147452 on 4 procs for 1000 steps with 577 atoms

Loop time of 0.0211116 on 4 procs for 61 steps with 577 atoms

Loop time of 0.147695 on 4 procs for 1000 steps with 577 atoms

Loop time of 0.0224035 on 4 procs for 63 steps with 577 atoms

Loop time of 0.151858 on 4 procs for 1000 steps with 577 atoms

Loop time of 0.0206581 on 4 procs for 54 steps with 577 atoms

Loop time of 0.178096 on 4 procs for 1000 steps with 577 atoms

Loop time of 0.0196412 on 4 procs for 55 steps with 577 atoms

Loop time of 0.15925 on 4 procs for 1000 steps with 577 atoms

Loop time of 0.0351628 on 4 procs for 57 steps with 577 atoms

Loop time of 0.248652 on 4 procs for 1000 steps with 577 atoms

Loop time of 0.0293576 on 4 procs for 61 steps with 577 atoms

Loop time of 0.188747 on 4 procs for 1000 steps with 577 atoms

Loop time of 0.0326888 on 4 procs for 51 steps with 577 atoms

Loop time of 0.276107 on 4 procs for 1000 steps with 577 atoms

Loop time of 0.0217792 on 4 procs for 55 steps with 577 atoms

Loop time of 0.192733 on 4 procs for 1000 steps with 577 atoms

Loop time of 0.0283784 on 4 procs for 66 steps with 577 atoms

Loop time of 0.168478 on 4 procs for 1000 steps with 577 atoms

Loop time of 0.0209876 on 4 procs for 53 steps with 577 atoms

Loop time of 0.196029 on 4 procs for 1000 steps with 577 atoms

Loop time of 0.0294663 on 4 procs for 55 steps with 577 atoms

Loop time of 0.253235 on 4 procs for 1000 steps with 577 atoms

Loop time of 0.0273268 on 4 procs for 58 steps with 577 atoms

Loop time of 0.227089 on 4 procs for 1000 steps with 577 atoms

Loop time of 0.0555945 on 4 procs for 64 steps with 577 atoms

Loop time of 0.200219 on 4 procs for 1000 steps with 577 atoms

Loop time of 0.0225247 on 4 procs for 51 steps with 577 atoms

Loop time of 0.160607 on 4 procs for 1000 steps with 577 atoms

Loop time of 0.0185262 on 4 procs for 52 steps with 577 atoms

Loop time of 0.157259 on 4 procs for 1000 steps with 577 atoms

Loop time of 0.0206097 on 4 procs for 59 steps with 577 atoms

Loop time of 0.149199 on 4 procs for 1000 steps with 577 atoms

Loop time of 0.0193175 on 4 procs for 54 steps with 577 atoms

Loop time of 0.147735 on 4 procs for 1000 steps with 577 atoms

Loop time of 0.0194244 on 4 procs for 54 steps with 577 atoms

Loop time of 0.16266 on 4 procs for 1000 steps with 577 atoms

Loop time of 0.0194454 on 4 procs for 53 steps with 577 atoms

Loop time of 0.14771 on 4 procs for 1000 steps with 577 atoms

Loop time of 0.0189104 on 4 procs for 52 steps with 577 atoms

Loop time of 0.152505 on 4 procs for 1000 steps with 577 atoms

Loop time of 0.0200894 on 4 procs for 54 steps with 577 atoms

Loop time of 0.170403 on 4 procs for 1000 steps with 577 atoms

Loop time of 0.0303804 on 4 procs for 58 steps with 577 atoms

Loop time of 0.243084 on 4 procs for 1000 steps with 577 atoms

Loop time of 0.0209683 on 4 procs for 55 steps with 577 atoms

Loop time of 0.159347 on 4 procs for 1000 steps with 577 atoms

Loop time of 0.0222729 on 4 procs for 61 steps with 577 atoms

Loop time of 0.179737 on 4 procs for 1000 steps with 577 atoms

Loop time of 0.0226798 on 4 procs for 57 steps with 577 atoms

Loop time of 0.162221 on 4 procs for 1000 steps with 577 atoms

Loop time of 0.029222 on 4 procs for 56 steps with 577 atoms

Loop time of 0.200459 on 4 procs for 1000 steps with 577 atoms

Loop time of 0.0181701 on 4 procs for 51 steps with 577 atoms

Final hyper stats ...

Cummulative quantities for fix hyper:
  hyper time = 413625
  time boost factor = 827.251
  event timesteps = 3
  # of atoms in events = 6
Quantities for this hyper run:
  event timesteps = 3
  # of atoms in events = 6
  max length of any bond = 5.54459
  max drift distance of any atom = 2.33267
  fraction of biased bonds with zero bias = 0.19106
  fraction of biased bonds with negative strain = 0.00119
Current quantities:
  ave bonds/atom = 5.99654

Loop time of 18.1545 on 4 procs for 100000 steps with 577 atoms

Hyper stats:
  Dynamics time (%) = 15.7932 (86.9934)
  Quench   time (%) = 2.11457 (11.6476)
  Other    time (%) = 0.613371 (3.37862)
