LAMMPS (29 Oct 2020)
# created by fftool

units real
boundary p p p

atom_style full
bond_style harmonic
angle_style harmonic
dihedral_style opls
special_bonds lj/coul 0.0 0.0 0.5

read_data data.0.lmp
Reading data file ...
  orthogonal box = (-13.443762 -13.443762 -13.443762) to (13.443762 13.443762 13.443762)
  reading atoms ...
  1090 atoms
  scanning bonds ...
  scanning angles ...
  scanning dihedrals ...
  reading bonds ...
  729 bonds
  reading angles ...
  377 angles
  reading dihedrals ...
  16 dihedrals
Finding 1-2 1-3 1-4 neighbors ...
     5 = max # of 1-2 neighbors
     4 = max # of 1-3 neighbors
     8 = max # of 1-4 neighbors
     9 = max # of special neighbors
# read_restart restart.*.lmp
# reset_timestep 0

pair_style hybrid lj/cut/coul/long 10.0 10.0   lj/cut/coul/long/soft 1 0.5 10.0 10.0 10.0
pair_modify tail no
kspace_style pppm 1.0e-5

# use pair soft for atoms that may overlap
# zero epsilon between appearing and desappearing sites: 2-5 3-5
pair_coeff    1    1 lj/cut/coul/long     0.065999     3.500000  # C-CO C-CO
pair_coeff    1    2 lj/cut/coul/long     0.065999     3.500000  # C-CO C-D
pair_coeff    1    3 lj/cut/coul/long     0.044497     2.958040  # C-CO H-D
pair_coeff    1    4 lj/cut/coul/long     0.044497     2.958040  # C-CO H-H1
pair_coeff    1    5 lj/cut/coul/long     0.105924     3.304542  # C-CO OHD-
pair_coeff    1    6 lj/cut/coul/long     0.000000     1.870829  # C-CO HOD-
pair_coeff    1    7 lj/cut/coul/long     0.000000     1.870829  # C-CO Hw
pair_coeff    1    8 lj/cut/coul/long     0.101281     3.328551  # C-CO Ow
pair_coeff    2    2 lj/cut/coul/long     0.065999     3.500000  # C-D C-D
pair_coeff    2    3 lj/cut/coul/long     0.044497     2.958040  # C-D H-D
pair_coeff    2    4 lj/cut/coul/long     0.044497     2.958040  # C-D H-H1
pair_coeff    2    5 lj/cut/coul/long     0.000000     3.304542  # C-D OHD-
pair_coeff    2    6 lj/cut/coul/long     0.000000     1.870829  # C-D HOD-
pair_coeff    2    7 lj/cut/coul/long/soft     0.000000     1.870829  1.0  # C-D Hw
pair_coeff    2    8 lj/cut/coul/long/soft     0.101281     3.328551  1.0  # C-D Ow
pair_coeff    3    3 lj/cut/coul/long     0.030000     2.500000  # H-D H-D
pair_coeff    3    4 lj/cut/coul/long/soft     0.030000     2.500000  1.0  # H-D H-H1
pair_coeff    3    5 lj/cut/coul/long     0.000000     2.792848  # H-D OHD-
pair_coeff    3    6 lj/cut/coul/long     0.000000     1.581139  # H-D HOD-
pair_coeff    3    7 lj/cut/coul/long/soft     0.000000     1.581139  1.0  # H-D Hw
pair_coeff    3    8 lj/cut/coul/long/soft     0.068284     2.813139  1.0  # H-D Ow
pair_coeff    4    4 lj/cut/coul/long     0.030000     2.500000  # H-H1 H-H1
pair_coeff    4    5 lj/cut/coul/long     0.071414     2.792848  # H-H1 OHD-
pair_coeff    4    6 lj/cut/coul/long/soft     0.000000     1.581139  0.0  # H-H1 HOD-
pair_coeff    4    7 lj/cut/coul/long     0.000000     1.581139  # H-H1 Hw
pair_coeff    4    8 lj/cut/coul/long     0.068284     2.813139  # H-H1 Ow
pair_coeff    5    5 lj/cut/coul/long     0.170000     3.120000  # OHD- OHD-
pair_coeff    5    6 lj/cut/coul/long     0.000000     1.766352  # OHD- HOD-
pair_coeff    5    7 lj/cut/coul/long/soft     0.000000     1.766352  0.0  # OHD- Hw
pair_coeff    5    8 lj/cut/coul/long/soft     0.162549     3.142668  0.0  # OHD- Ow
pair_coeff    6    6 lj/cut/coul/long     0.000000     1.000000  # HOD- HOD-
pair_coeff    6    7 lj/cut/coul/long/soft     0.000000     1.000000  0.0  # HOD- Hw
pair_coeff    6    8 lj/cut/coul/long/soft     0.000000     1.779185  0.0  # HOD- Ow
pair_coeff    7    7 lj/cut/coul/long     0.000000     1.000000  # Hw Hw
pair_coeff    7    8 lj/cut/coul/long     0.000000     1.779185  # Hw Ow
pair_coeff    8    8 lj/cut/coul/long     0.155425     3.165500  # Ow Ow

variable TK equal 300.0
variable PBAR equal 1.0

neighbor 2.0 bin

timestep 1.0

velocity all create 300 12345

fix SHAKE all shake 0.0001 20 0 b 2 4 5 a 6
       1 = # of size 2 clusters
       0 = # of size 3 clusters
       2 = # of size 4 clusters
     360 = # of frozen angles
  find clusters CPU = 0.000 seconds

fix NPT all npt temp 300 300 100 iso 1 1 500

thermo_style custom step cpu epair emol etotal temp press density
thermo 1000

run 200000
PPPM initialization ...
  G vector (1/distance) = 0.30693001
  grid = 24 24 24
  stencil order = 5
  estimated absolute RMS force accuracy = 0.0020308812
  estimated relative force accuracy = 6.1159385e-06
  3d grid and FFT values/proc = 5415 1152
  update every 1 steps, delay 10 steps, check yes
Step CPU E_pair E_mol TotEng Temp Press Density
0            0    -230.1518   0.30946681    743.98832    449.58716    1836.3864    0.5580518
Averages over the last 101 of 201 rows, steps 100000 to 200000:
E_pair E_mol TotEng Temp Press Density
-3996.39 3.83596 -3344.42 299.22 9.48607 0.989058
Loop time of 805.055 on 12 procs for 200000 steps with 1090 atoms

reset_timestep 0

variable lambda equal ramp(0.0,1.0)
variable minusl equal 1.0-v_lambda
variable q1 equal  0.145*v_lambda-0.180*(1.0-v_lambda)
variable q2 equal -0.180*(1.0-v_lambda)
variable q3 equal  0.060*(1.0-v_lambda)
variable q4 equal  0.040*v_lambda+0.060*(1.0-v_lambda)
variable q5 equal -0.683*v_lambda
variable q6 equal  0.418*v_lambda

fix ADAPT all adapt/fep 100000     pair lj/cut/coul/long/soft lambda 2*3 7*8 v_minusl     pair lj/cut/coul/long/soft lambda 3 4 v_minusl     pair lj/cut/coul/long/soft lambda 4 6 v_lambda     pair lj/cut/coul/long/soft lambda 5*6 7*8 v_lambda     atom charge 1 v_q1     atom charge 2 v_q2     atom charge 3 v_q3     atom charge 4 v_q4     atom charge 5 v_q5     atom charge 6 v_q6     after yes

variable dlambda equal  0.05
variable minusdl equal -0.05
variable dq1 equal (0.145+0.180)*v_dlambda
variable dq2 equal  0.180*v_dlambda
variable dq3 equal -0.060*v_dlambda
variable dq4 equal (0.040-0.060)*v_dlambda
variable dq5 equal -0.683*v_dlambda
variable dq6 equal  0.418*v_dlambda

compute FEP all fep 300     pair lj/cut/coul/long/soft lambda 2*3 7*8 v_minusdl     pair lj/cut/coul/long/soft lambda 3 4 v_minusdl     pair lj/cut/coul/long/soft lambda 4 6 v_dlambda     pair lj/cut/coul/long/soft lambda 5*6 7*8 v_dlambda     atom charge 1 v_dq1     atom charge 2 v_dq2     atom charge 3 v_dq3     atom charge 4 v_dq4     atom charge 5 v_dq5     atom charge 6 v_dq6     volume yes

fix FEP all ave/time 20 4000 100000 c_FEP[*] file fep01.fep

thermo_style custom step cpu epair emol etotal temp press density v_lambda

dump TRAJ all custom 20000 dump.lammpstrj id mol type element xu yu zu
dump_modify TRAJ element C C H H O H H O

#restart 20000 restart1.lmp restart2.lmp

run 2000000
PPPM initialization ...
  G vector (1/distance) = 0.30705953
  grid = 20 20 20
  stencil order = 5
  estimated absolute RMS force accuracy = 0.0026525602
  estimated relative force accuracy = 7.9881064e-06
  3d grid and FFT values/proc = 4046 800
FEP settings ...
  temperature = 300.000000
  tail no
  lj/cut/coul/long/soft lambda 2-3 7-8
  lj/cut/coul/long/soft lambda 3-3 4-4
  lj/cut/coul/long/soft lambda 4-4 6-6
  lj/cut/coul/long/soft lambda 5-6 7-8
  1-1 charge
  2-2 charge
  3-3 charge
  4-4 charge
  5-5 charge
  6-6 charge
  update every 1 steps, delay 10 steps, check yes
Step CPU E_pair E_mol TotEng Temp Press Density v_lambda
0            0   -3989.8626    4.9888731   -3315.4273    309.06247   -1593.3122   0.97162748            0
Averages over the last 1001 of 2001 rows, steps 1000000 to 2000000:
E_pair E_mol TotEng Temp Press Density v_lambda
-4005.73 5.9106 -3349.73 300.127 14.3082 0.990543 0.75
Loop time of 7165.98 on 12 procs for 2000000 steps with 1090 atoms

write_data data.*.lmp
System init for write_data ...
PPPM initialization ...
  G vector (1/distance) = 0.30684643
  grid = 20 20 20
  stencil order = 5
  estimated absolute RMS force accuracy = 0.002679522
  estimated relative force accuracy = 8.0693008e-06
  3d grid and FFT values/proc = 4046 800
  update every 1 steps, delay 10 steps, check yes
