LAMMPS (9 Oct 2020)
####################################################################################################
#
# ULSPH example: water flow through a complex geometry read from a .STL file
#
# The boundary dump file (see below) can be converted into VTK format using the conversion
# tool dump2vtk_tris from the tools/smd directory.
#
# unit system: GPa / mm / ms
#
####################################################################################################

####################################################################################################
# MATERIAL PARAMETERS
####################################################################################################
variable        c0 equal 10.0 # speed of sound for fluid
variable        rho equal 1.0e-6 # initial mass density
variable        q1 equal 0.06 # standard artificial viscosity linear coefficient
variable        q2 equal 0.0  # standard artificial viscosity quadratic coefficient
variable        hg equal 0.0 # hourglass control coefficient
variable        cp equal 1.0 # heat capacity of material -- not used here
variable        K equal 10*1e-06^2
variable        contact_stiffness equal 0.1*1e-11

####################################################################################################
# INITIALIZE LAMMPS
####################################################################################################
dimension       3
units           si
boundary        f f f # simulation box boundaries
atom_style      smd
atom_modify	map array
comm_modify     vel yes
comm_style      tiled
neigh_modify    every 10 delay 0 check yes exclude type 2 2 one 10000
newton          off

####################################################################################################
# CREATE INITIAL GEOMETRY
####################################################################################################
variable        l0 equal 5.0 # lattice spacing for creating particles
lattice         sc 5
Lattice spacing in x,y,z = 5.0000000 5.0000000 5.0000000
region          box block -110 60 -30 220 -90 130 units box
create_box      2 box
Created orthogonal box = (-110.00000 -30.000000 -90.000000) to (60.000000 220.00000 130.00000)
region          particles cylinder y 0 -30 47 135 200 units box
create_atoms    1 region particles
Created 3878 atoms
group           water type 1
3878 atoms in group water

####################################################################################################
# DISCRETIZATION PARAMETERS
####################################################################################################
variable        h equal 2.01*5
variable        vol_one equal 5^3
variable        skin equal 0.1*10.05
neighbor        1.005 bin
variable        cr equal 5/2
set             group all smd/contact/radius 2.5
Setting atom values ...
  3878 settings made for smd/contact/radius
set             group all volume 125
Setting atom values ...
  3878 settings made for volume
set             group all smd/mass/density 1e-06
Setting atom values ...
  3878 settings made for smd/mass/density
set             group all diameter 10.05
Setting atom values ...
  3878 settings made for diameter

####################################################################################################
# DEFINE GRAVITY BOUNDARY CONDITION
####################################################################################################
fix             gfix all gravity 0.01 vector 0.0 -1. 0.0

####################################################################################################
# INTERACTION PHYSICS / MATERIAL MODEL
# We use polynomial EOS for the pressure and the Johnson Cook strength model
# An integration point fails (cannot support tension anymore) if the plastic strain exceeds 0.5.
####################################################################################################
pair_style      hybrid/overlay smd/tri_surface 1.0                 smd/ulsph *DENSITY_CONTINUITY *VELOCITY_GRADIENT *NO_GRADIENT_CORRECTION
pair_coeff      1 1 smd/ulsph *COMMON 1e-06 10 0.06 1 0                 *EOS_TAIT 2                 *END
pair_coeff      2 2 none
pair_coeff      1 2 smd/tri_surface 1e-12

####################################################################################################
# LOAD STL SURFACE
####################################################################################################
fix             stl_surface_fix all smd/wall_surface boundary.stl 2 65535
run             0 # This is important! Always run for 0 timesteps directly after loading STL file!
  update every 10 steps, delay 0 steps, check yes
  scanning triangle pairs ...
... fix smd/wall_surface finished reading triangulated surface
fix smd/wall_surface created 9472 atoms
>>========>>========>>========>>========>>========>>========>>========>>========
Step Temp E_pair E_mol TotEng Press
0            0            0            0            0            0
Loop time of 1.97887e-05 on 4 procs for 0 steps with 13350 atoms

group           surface type 2
9472 atoms in group surface

####################################################################################################
# TIME INTEGRATION
####################################################################################################
fix             force_fix surface setforce 0 0 0
fix             dtfix all smd/adjust_dt 0.1 # dynamically adjust time increment every step
fix             integration_fix all smd/integrate_ulsph adjust_radius 1.01 10 15

####################################################################################################
# SPECIFY TRAJECTORY OUTPUT
####################################################################################################
variable        dumpFreq equal 100
compute         rho all smd/rho
compute         nn all smd/ulsph/num/neighs # number of neighbors for each particle
compute         contact_radius all smd/contact/radius
compute         surface_coords surface smd/triangle/vertices

dump            dump_id water custom 100 dump.LAMMPS id type x y z vx vy vz                 c_rho c_nn c_contact_radius proc
dump_modify     dump_id first yes

dump            surf_dump surface custom 999999999 surface.LAMMPS id type mol x y z                    c_surface_coords[1] c_surface_coords[2] c_surface_coords[3]                            c_surface_coords[4] c_surface_coords[5] c_surface_coords[6]                            c_surface_coords[7] c_surface_coords[8] c_surface_coords[9]
dump_modify 	surf_dump first yes

####################################################################################################
# STATUS OUTPUT
####################################################################################################
compute         eint all smd/internal/energy
compute         alleint all reduce sum c_eint
variable        etot equal pe+ke+c_alleint+f_gfix # total energy of the system
thermo          100
thermo_style    custom step dt f_dtfix pe ke v_etot

####################################################################################################
# RUN SIMULATION
####################################################################################################
balance          1.1 rcb
Balancing ...
  update every 10 steps, delay 0 steps, check yes
 rebalancing time: 0.004 seconds
  iteration count = 0
  initial/final maximal load/proc = 6452.0000 3338.0000
  initial/final imbalance factor  = 1.9331835 1.0001498
fix              balance_fix all balance 200 1.1 rcb
run              5000
  update every 10 steps, delay 0 steps, check yes
Step Dt f_dtfix PotEng KinEng v_etot
0        1e-16            0            0            0    7373.6969
Averages over the last 26 of 51 rows, steps 2500 to 5000:
Dt f_dtfix PotEng KinEng v_etot
0.0615939 236.1 1.11914e-16 0.0530925 7373.68
Loop time of 32.2245 on 4 procs for 5000 steps with 13350 atoms
