LAMMPS (28 Jul 2021)
units           lj
atom_style      full
boundary p p p

special_bonds lj/coul 1 1 1
newton on on

# save an extra atom type for bond particles
read_data data.chain
Reading data file ...
  orthogonal box = (0.0000000 0.0000000 0.0000000) to (10.000000 10.000000 10.000000)
  reading atoms ...
  3000 atoms
  reading velocities ...
  3000 velocities
  scanning bonds ...
  reading bonds ...
  2700 bonds
Finding 1-2 1-3 1-4 neighbors ...
     2 = max # of 1-2 neighbors
     2 = max # of special neighbors

neighbor        2.0 bin
neigh_modify    every 10 check yes

bond_style      harmonic
bond_coeff      * 225.0 0.85

comm_modify vel yes
comm_modify cutoff 3.6

# must use pair hybrid, since srp bond particles
# do not interact with other atoms types
pair_style      hybrid dpd 1.0 1.0 373692 srp 0.8 1 mid
pair_coeff      1 1 dpd 60.0 4.5 1.0
pair_coeff      1 2 none
pair_coeff      2 2 srp 100.0

# auto normalization of thermo quantities is turned off by pair srp
# just divide by natoms
variable        natoms equal count(all)
variable        nPotEng equal c_thermo_pe/v_natoms

thermo 50
thermo_style custom step temp pe v_nPotEng press atoms v_natoms lx ly lz

fix  1 all nve
timestep        0.01

#restart 500	mid-run-*.restart

run          1000

CITE-CITE-CITE-CITE-CITE-CITE-CITE-CITE-CITE-CITE-CITE-CITE-CITE

Your simulation uses code contributions which should be cited:

- @Article{Sirk2012
 author = {T. Sirk and Y. Sliozberg and J. Brennan and M. Lisal and J. Andzelm},
 title = {An enhanced entangled polymer model for dissipative particle dynamics},
 journal = {J.~Chem.~Phys.},
 year =    2012,
 volume =  136,
 pages =   {134903}
}

CITE-CITE-CITE-CITE-CITE-CITE-CITE-CITE-CITE-CITE-CITE-CITE-CITE

Using type 2 for bond particles
Thermo normalization turned off by pair srp (src/MISC/pair_srp.cpp:486)
  update every 10 steps, delay 10 steps, check yes
Removed/inserted 0/2700 bond particles. (src/MISC/fix_srp.cpp:250)
Step Temp PotEng v_nPotEng Press Atoms v_natoms Lx Ly Lz
0   0.98262092    31772.336    10.590779    60.908146     5700         3000           10           10           10
Averages over the last 11 of 21 rows, steps 500 to 1000:
Temp PotEng v_nPotEng Press Atoms v_natoms Lx Ly Lz
1.0072 31801.8 10.6006 61.3702 5700 3000 10 10 10
Deleted 2700 atoms, new total = 3000
Loop time of 2.18923 on 4 procs for 1000 steps with 3000 atoms

#write_restart   end-run.restart
